*Heading
 Single element test for Fiber-direction response
**
**Parameter
**U1=0.05
**incrementSize=0.01
** NODES
**
*Node, NSET=GLOBAL
      1,            0.,            0.,            0.
      2,           1.0,            0.,            0.
      3,           1.0,           1.0,            0.
      4,            0.,           1.0,            0.
      5,            0.,            0.,            1.0
      6,           1.0,            0.,            1.0
      7,           1.0,           1.0,            1.0
      8,            0.,           1.0,            1.0
*NSET, NSET=X+
  2, 3, 6, 7
*NSET, NSET=X-
  1, 4, 5, 8
*NSET, NSET=Y+
  3, 4, 7, 8
*NSET, NSET=Y-
  1, 2, 5, 6
*NSET, NSET=Z+
  5, 6, 7, 8
*NSET, NSET=Z-
  1, 2, 3, 4
**
** Elements
**
*Element, type=C3D8R, ELSET=ALL_ELEMS
  1, 1, 2, 3, 4, 5, 6, 7, 8
**
** Properties
**
*Solid Section, elset=ALL_ELEMS, material=UMAT_MAT-C3D8R, controls=C-1
*Section Controls, name=C-1, hourglass=ENHANCED
** 
** MATERIALS
**
*Material, name=UMAT_MAT-C3D8R
*Density
 1.59e-09,
*Depvar, delete=11
  33,
  1, CDM_d2
  2, CDM_Fb1
  3, CDM_Fb2
  4, CDM_Fb3
  5, CDM_B
  6, CDM_Lc1
  7, CDM_Lc2
  8, CDM_Lc3
  9, CDM_FIm
 10, CDM_alpha
 11, CDM_STATUS
 12, CDM_Plas12
 13, CDM_Inel12
 14, CDM_FIfT
 15, CDM_slide1
 16, CDM_slide2
 17, CDM_FIfC
 18, CDM_d1T
 19, CDM_d1C
 20, CDM_20
 21, CDM_21
 22, CDM_22
 23, CDM_23
 24, CDM_24
 25, CDM_DIRECT11
 26, CDM_DIRECT21
 27, CDM_DIRECT31
 28, CDM_DIRECT12
 29, CDM_DIRECT22
 30, CDM_DIRECT32
 31, CDM_DIRECT13
 32, CDM_DIRECT23
 33, CDM_DIRECT33
*User defined field
** *Characteristic Length, definition=USER, components=3
*User material, constants=40
** 1              2  3          4  5  6  7  8
** feature flags,  , thickness, 4, 5, 6, 7, 8
          000000,  ,       1.0,  ,  ,  ,  ,  ,
** 
**       9      10         11        12        13        14        15        16
**      E1,     E2,       G12,     nu12,     nu23,       YT,       SL,      GYT,
    44800., 12100.,     3400.,      0.3,     0.3,      200.,         ,         ,
**
**  17        18        19        20         21         22        23        24
**  GSL,      eta_BK,   YC,      alpha0,     E3,        G13,      G23,      nu13,
       ,            ,     ,            , 12100.,      3400.,    3400.,       0.3,
**
**  25        26        27        28        29        30        31        32
**  alpha11,  alpha22,  alpha_PL, n_PL,     XT,       fXT,      GXT,      fGXT,
           ,         ,          ,     ,       ,          ,         ,          ,
**
**  33        34        35        36        37        38        39        40
**  XC,       fXC,      GXC,      fGXC,       cf,     w_kb,     None,     mu
      ,          ,         ,          ,         ,         ,          ,      
**
*Initial Conditions, Type=Solution
ALL_ELEMS,  0.d0,  0.d0,  0.d0,  0.d0,  0.d0,  0.d0,  0.d0,
0.d0,  0.d0,  -999,     1,  0.d0,  0.d0,  0.d0,  0.d0,
0.d0,  0.d0,  0.d0,  0.d0,  0.d0,  0.d0,  0.d0,  0.d0,
0.d0,  0.d0,  0.d0,  0.d0,  0.d0,  0.d0,  0.d0,  0.d0,
0.d0,  0.d0,  0.d0,  0.d0,  0.d0,  0.d0
*Initial Conditions, Type=Field, Variable=1
GLOBAL,  0.d0
**
** In each step, NLGEOM=YES must be used. This is the default setting.
** 
** BOUNDARY CONDITIONS
** 
** Name: BC-2 Type: Displacement/Rotation
*Boundary
X-, 1, 1
** ----------------------------------------------------------------
** 
** STEP: Step-1
** 
*Step, name=Step-1, nlgeom=YES, inc=100000
*Static, direct
0.01, 1., 
** 
** Loading
**
*Amplitude, name=Instant
             0.,              1.,              1.,              1.
*Amplitude, name=Lin
             0.,              0.,              1.,              1.
** 
** Name: BC-2 Type: Displacement/Rotation
*Boundary, op=NEW, amplitude=Instant
X-, 1, 1
** Name: BC-3 Type: Displacement/Rotation
*Boundary, op=NEW, amplitude=Lin
X+, 1, 1, 0.05
** Name: BC-4 Type: Displacement/Rotation
*Boundary, op=NEW, amplitude=Instant
Y-, 2, 2
** Name: BC-5 Type: Displacement/Rotation
*Boundary, op=NEW, amplitude=Instant
Z-, 3, 3
** 
** OUTPUT REQUESTS
** 
*Restart, write, frequency=0
** 
** OUTPUT REQUESTS
** 
** FIELD OUTPUT: F-Output-1
** 
*Output, field, variable=PRESELECT
** 
** HISTORY OUTPUT: H-Output-2
** 
*Output, history
*Element Output, elset=ALL_ELEMS
S11, LE11
**
*End Step

