1

   Abaqus 3DEXPERIENCE R2017x                                  Date 26-Feb-2018   Time 13:38:06
   For use by NTNU NORGES TEKNISK NATURVITENSKAPELIGE UNIVERSITET under license from Dassault Systemes or its subsidiary.

  Single element test for Fiber-direction response                               
                                                                                 
 STEP    1     INCREMENT     1     STEP TIME    0.00    


                        S T E P       1     S T A T I C   A N A L Y S I S


                                                                                          

          FIXED TIME INCREMENTS
          TIME INCREMENT IS                                    1.000E-02
          TIME PERIOD IS                                        1.00    

     LINEAR EQUATION SOLVER TYPE         DIRECT SPARSE

 CONVERGENCE TOLERANCE PARAMETERS FOR FORCE    
     CRITERION FOR RESIDUAL FORCE     FOR A NONLINEAR PROBLEM          5.000E-03
     CRITERION FOR DISP.    CORRECTION IN A NONLINEAR PROBLEM          1.000E-02
     INITIAL VALUE OF TIME AVERAGE FORCE                               1.000E-02
     AVERAGE FORCE     IS TIME AVERAGE FORCE    
     ALTERNATE CRIT. FOR RESIDUAL FORCE     FOR A NONLINEAR PROBLEM    2.000E-02
     CRITERION FOR ZERO FORCE     RELATIVE TO TIME AVRG. FORCE         1.000E-05
     CRITERION FOR RESIDUAL FORCE     WHEN THERE IS ZERO FLUX          1.000E-05
     CRITERION FOR DISP.    CORRECTION WHEN THERE IS ZERO FLUX         1.000E-03
     CRITERION FOR RESIDUAL FORCE     FOR A LINEAR INCREMENT           1.000E-08
     FIELD CONVERSION RATIO                                             1.00    
     CRITERION FOR ZERO FORCE     REL. TO TIME AVRG. MAX. FORCE        1.000E-05
     CRITERION FOR ZERO DISP.    RELATIVE TO CHARACTERISTIC LENGTH     1.000E-08

     VOLUMETRIC STRAIN COMPATIBILITY TOLERANCE FOR HYBRID SOLIDS       1.000E-05
     AXIAL STRAIN COMPATIBILITY TOLERANCE FOR HYBRID BEAMS             1.000E-05
     TRANS. SHEAR STRAIN COMPATIBILITY TOLERANCE FOR HYBRID BEAMS      1.000E-05
     SOFT CONTACT CONSTRAINT COMPATIBILITY TOLERANCE FOR P>P0          5.000E-03
     SOFT CONTACT CONSTRAINT COMPATIBILITY TOLERANCE FOR P=0.0         0.100    
     CONTACT FORCE ERROR TOLERANCE FOR CONVERT SDI=YES                 1.00    
     DISPLACEMENT COMPATIBILITY TOLERANCE FOR DCOUP ELEMENTS           1.000E-05
     ROTATION COMPATIBILITY TOLERANCE FOR DCOUP ELEMENTS               1.000E-05

 EQUILIBRIUM WILL BE CHECKED FOR SEVERE DISCONTINUITY ITERATIONS

 ITERATION CONTROL PARAMETERS:
     FIRST EQUILIBRIUM ITERATION FOR CONSECUTIVE DIVERGENCE CHECK              4
     EQUILIBRIUM ITERATION AFTER WHICH ALTERNATE RESIDUAL IS USED              9
     MAXIMUM EQUILIBRIUM ITERATIONS ALLOWED                                   16
     MAXIMUM ITERATIONS FOR SEVERE DISCONTINUITIES                            12
     GLOBAL STABILIZATION CONTROL IS NOT USED

          PRINT OF INCREMENT NUMBER, TIME, ETC., EVERY    1  INCREMENTS

     THE MAXIMUM NUMBER OF INCREMENTS IN THIS STEP IS                   10000

          LARGE DISPLACEMENT THEORY WILL BE USED

     LINEAR EXTRAPOLATION WILL BE USED

     CHARACTERISTIC ELEMENT LENGTH      1.00    

     DETAILS REGARDING ACTUAL SOLUTION WAVEFRONT REQUESTED

     DETAILED OUTPUT OF DIAGNOSTICS TO DATABASE REQUESTED

     PRINT OF INCREMENT NUMBER, TIME, ETC., TO THE MESSAGE FILE EVERY     1  INCREMENTS

     COLLECTING MODEL CONSTRAINT INFORMATION FOR OVERCONSTRAINT CHECKS

     COLLECTING STEP CONSTRAINT INFORMATION FOR OVERCONSTRAINT CHECKS


  INCREMENT     1 STARTS. ATTEMPT NUMBER  1, TIME INCREMENT  1.000E-02

  NUMBER OF EQUATIONS =        24     NUMBER OF FLOATING PT. OPERATIONS =  4.90E+03

     CHECK POINT   START OF SOLVER    

     CHECK POINT  END OF SOLVER       

       ELAPSED USER TIME (SEC)      =   0.0000    
       ELAPSED SYSTEM TIME (SEC)    =   0.0000    
       ELAPSED TOTAL CPU TIME (SEC) =   0.0000    
       ELAPSED WALLCLOCK TIME (SEC) =          0

               CONVERGENCE CHECKS FOR EQUILIBRIUM ITERATION     1


 AVERAGE FORCE                       3.73       TIME AVG. FORCE        3.73    
 LARGEST RESIDUAL FORCE             2.539E-16   AT NODE          3   DOF  2
 LARGEST INCREMENT OF DISP.         1.000E-03   AT NODE          2   DOF  1
 LARGEST CORRECTION TO DISP.        1.000E-03   AT NODE          2   DOF  1
          THE FORCE     EQUILIBRIUM RESPONSE WAS LINEAR IN THIS INCREMENT

 ITERATION SUMMARY FOR THE INCREMENT:   1 TOTAL ITERATIONS, OF WHICH
   0 ARE SEVERE DISCONTINUITY ITERATIONS AND  1 ARE EQUILIBRIUM ITERATIONS.

 TIME INCREMENT COMPLETED  1.000E-02,  FRACTION OF STEP COMPLETED  1.000E-02
 STEP TIME COMPLETED       1.000E-02,  TOTAL TIME COMPLETED        1.000E-02


  INCREMENT     2 STARTS. ATTEMPT NUMBER  1, TIME INCREMENT  1.000E-02

  NUMBER OF EQUATIONS =        24     NUMBER OF FLOATING PT. OPERATIONS =  4.90E+03

     CHECK POINT   START OF SOLVER    

     CHECK POINT  END OF SOLVER       

       ELAPSED USER TIME (SEC)      =   0.0000    
       ELAPSED SYSTEM TIME (SEC)    =   0.0000    
       ELAPSED TOTAL CPU TIME (SEC) =   0.0000    
       ELAPSED WALLCLOCK TIME (SEC) =          0

               CONVERGENCE CHECKS FOR EQUILIBRIUM ITERATION     1


 AVERAGE FORCE                       22.4       TIME AVG. FORCE        13.1    
 LARGEST RESIDUAL FORCE             9.905E-20   AT NODE          7   DOF  3
 LARGEST INCREMENT OF DISP.         1.000E-03   AT NODE          2   DOF  1
 LARGEST CORRECTION TO DISP.        1.699E-19   AT NODE          3   DOF  2
          THE FORCE     EQUILIBRIUM RESPONSE WAS LINEAR IN THIS INCREMENT

 ITERATION SUMMARY FOR THE INCREMENT:   1 TOTAL ITERATIONS, OF WHICH
   0 ARE SEVERE DISCONTINUITY ITERATIONS AND  1 ARE EQUILIBRIUM ITERATIONS.

 TIME INCREMENT COMPLETED  1.000E-02,  FRACTION OF STEP COMPLETED  2.000E-02
 STEP TIME COMPLETED       2.000E-02,  TOTAL TIME COMPLETED        2.000E-02


  INCREMENT     3 STARTS. ATTEMPT NUMBER  1, TIME INCREMENT  1.000E-02

  NUMBER OF EQUATIONS =        24     NUMBER OF FLOATING PT. OPERATIONS =  4.90E+03

     CHECK POINT   START OF SOLVER    

     CHECK POINT  END OF SOLVER       

       ELAPSED USER TIME (SEC)      =   0.0000    
       ELAPSED SYSTEM TIME (SEC)    =   0.0000    
       ELAPSED TOTAL CPU TIME (SEC) =   0.0000    
       ELAPSED WALLCLOCK TIME (SEC) =          0

               CONVERGENCE CHECKS FOR EQUILIBRIUM ITERATION     1


 AVERAGE FORCE                       33.5       TIME AVG. FORCE        19.9    
 LARGEST RESIDUAL FORCE            -9.043E-20   AT NODE          5   DOF  3
 LARGEST INCREMENT OF DISP.         1.000E-03   AT NODE          2   DOF  1
 LARGEST CORRECTION TO DISP.       -8.490E-20   AT NODE          3   DOF  2
          THE FORCE     EQUILIBRIUM RESPONSE WAS LINEAR IN THIS INCREMENT

 ITERATION SUMMARY FOR THE INCREMENT:   1 TOTAL ITERATIONS, OF WHICH
   0 ARE SEVERE DISCONTINUITY ITERATIONS AND  1 ARE EQUILIBRIUM ITERATIONS.

 TIME INCREMENT COMPLETED  1.000E-02,  FRACTION OF STEP COMPLETED  3.000E-02
 STEP TIME COMPLETED       3.000E-02,  TOTAL TIME COMPLETED        3.000E-02


  INCREMENT     4 STARTS. ATTEMPT NUMBER  1, TIME INCREMENT  1.000E-02

  NUMBER OF EQUATIONS =        24     NUMBER OF FLOATING PT. OPERATIONS =  4.90E+03

     CHECK POINT   START OF SOLVER    

     CHECK POINT  END OF SOLVER       

       ELAPSED USER TIME (SEC)      =   0.0000    
       ELAPSED SYSTEM TIME (SEC)    =   0.0000    
       ELAPSED TOTAL CPU TIME (SEC) =   0.0000    
       ELAPSED WALLCLOCK TIME (SEC) =          0

               CONVERGENCE CHECKS FOR EQUILIBRIUM ITERATION     1


 AVERAGE FORCE                       44.7       TIME AVG. FORCE        26.1    
 LARGEST RESIDUAL FORCE             4.439E-22   AT NODE          4   DOF  2
 LARGEST INCREMENT OF DISP.         1.000E-03   AT NODE          2   DOF  1
 LARGEST CORRECTION TO DISP.        1.170E-22   AT NODE          7   DOF  2
          THE FORCE     EQUILIBRIUM RESPONSE WAS LINEAR IN THIS INCREMENT

 ITERATION SUMMARY FOR THE INCREMENT:   1 TOTAL ITERATIONS, OF WHICH
   0 ARE SEVERE DISCONTINUITY ITERATIONS AND  1 ARE EQUILIBRIUM ITERATIONS.

 TIME INCREMENT COMPLETED  1.000E-02,  FRACTION OF STEP COMPLETED  4.000E-02
 STEP TIME COMPLETED       4.000E-02,  TOTAL TIME COMPLETED        4.000E-02


  INCREMENT     5 STARTS. ATTEMPT NUMBER  1, TIME INCREMENT  1.000E-02

  NUMBER OF EQUATIONS =        24     NUMBER OF FLOATING PT. OPERATIONS =  4.90E+03

     CHECK POINT   START OF SOLVER    

     CHECK POINT  END OF SOLVER       

       ELAPSED USER TIME (SEC)      =   0.0000    
       ELAPSED SYSTEM TIME (SEC)    =   0.0000    
       ELAPSED TOTAL CPU TIME (SEC) =   0.0000    
       ELAPSED WALLCLOCK TIME (SEC) =          0

               CONVERGENCE CHECKS FOR EQUILIBRIUM ITERATION     1


 AVERAGE FORCE                       55.9       TIME AVG. FORCE        32.0    
 LARGEST RESIDUAL FORCE            -1.942E-22   AT NODE          6   DOF  3
 LARGEST INCREMENT OF DISP.         1.000E-03   AT NODE          2   DOF  1
 LARGEST CORRECTION TO DISP.        8.674E-19   AT NODE          2   DOF  1
          THE FORCE     EQUILIBRIUM RESPONSE WAS LINEAR IN THIS INCREMENT

 ITERATION SUMMARY FOR THE INCREMENT:   1 TOTAL ITERATIONS, OF WHICH
   0 ARE SEVERE DISCONTINUITY ITERATIONS AND  1 ARE EQUILIBRIUM ITERATIONS.

 TIME INCREMENT COMPLETED  1.000E-02,  FRACTION OF STEP COMPLETED  5.000E-02
 STEP TIME COMPLETED       5.000E-02,  TOTAL TIME COMPLETED        5.000E-02


  INCREMENT     6 STARTS. ATTEMPT NUMBER  1, TIME INCREMENT  1.000E-02

  NUMBER OF EQUATIONS =        24     NUMBER OF FLOATING PT. OPERATIONS =  4.90E+03

     CHECK POINT   START OF SOLVER    

     CHECK POINT  END OF SOLVER       

       ELAPSED USER TIME (SEC)      =   0.0000    
       ELAPSED SYSTEM TIME (SEC)    =   0.0000    
       ELAPSED TOTAL CPU TIME (SEC) =   0.0000    
       ELAPSED WALLCLOCK TIME (SEC) =          0

               CONVERGENCE CHECKS FOR EQUILIBRIUM ITERATION     1


 AVERAGE FORCE                       67.0       TIME AVG. FORCE        37.9    
 LARGEST RESIDUAL FORCE            -2.380E-24   AT NODE          7   DOF  2
 LARGEST INCREMENT OF DISP.         1.000E-03   AT NODE          2   DOF  1
 LARGEST CORRECTION TO DISP.       -8.674E-19   AT NODE          2   DOF  1
          THE FORCE     EQUILIBRIUM RESPONSE WAS LINEAR IN THIS INCREMENT

 ITERATION SUMMARY FOR THE INCREMENT:   1 TOTAL ITERATIONS, OF WHICH
   0 ARE SEVERE DISCONTINUITY ITERATIONS AND  1 ARE EQUILIBRIUM ITERATIONS.

 TIME INCREMENT COMPLETED  1.000E-02,  FRACTION OF STEP COMPLETED  6.000E-02
 STEP TIME COMPLETED       6.000E-02,  TOTAL TIME COMPLETED        6.000E-02


  INCREMENT     7 STARTS. ATTEMPT NUMBER  1, TIME INCREMENT  1.000E-02

  NUMBER OF EQUATIONS =        24     NUMBER OF FLOATING PT. OPERATIONS =  4.90E+03

     CHECK POINT   START OF SOLVER    

     CHECK POINT  END OF SOLVER       

       ELAPSED USER TIME (SEC)      =   0.0000    
       ELAPSED SYSTEM TIME (SEC)    =   0.0000    
       ELAPSED TOTAL CPU TIME (SEC) =   0.0000    
       ELAPSED WALLCLOCK TIME (SEC) =          0

               CONVERGENCE CHECKS FOR EQUILIBRIUM ITERATION     1


 AVERAGE FORCE                       78.1       TIME AVG. FORCE        43.6    
 LARGEST RESIDUAL FORCE            -6.533E-25   AT NODE          8   DOF  2
 LARGEST INCREMENT OF DISP.         1.000E-03   AT NODE          2   DOF  1
 LARGEST CORRECTION TO DISP.       -8.721E-26   AT NODE          5   DOF  3
          THE FORCE     EQUILIBRIUM RESPONSE WAS LINEAR IN THIS INCREMENT

 ITERATION SUMMARY FOR THE INCREMENT:   1 TOTAL ITERATIONS, OF WHICH
   0 ARE SEVERE DISCONTINUITY ITERATIONS AND  1 ARE EQUILIBRIUM ITERATIONS.

 TIME INCREMENT COMPLETED  1.000E-02,  FRACTION OF STEP COMPLETED  7.000E-02
 STEP TIME COMPLETED       7.000E-02,  TOTAL TIME COMPLETED        7.000E-02


  INCREMENT     8 STARTS. ATTEMPT NUMBER  1, TIME INCREMENT  1.000E-02

  NUMBER OF EQUATIONS =        24     NUMBER OF FLOATING PT. OPERATIONS =  4.90E+03

     CHECK POINT   START OF SOLVER    

     CHECK POINT  END OF SOLVER       

       ELAPSED USER TIME (SEC)      =   0.0000    
       ELAPSED SYSTEM TIME (SEC)    =   0.0000    
       ELAPSED TOTAL CPU TIME (SEC) =   0.0000    
       ELAPSED WALLCLOCK TIME (SEC) =          0

               CONVERGENCE CHECKS FOR EQUILIBRIUM ITERATION     1


 AVERAGE FORCE                       89.2       TIME AVG. FORCE        49.3    
 LARGEST RESIDUAL FORCE            -1.526E-26   AT NODE          5   DOF  3
 LARGEST INCREMENT OF DISP.         1.000E-03   AT NODE          2   DOF  1
 LARGEST CORRECTION TO DISP.       -8.674E-19   AT NODE          2   DOF  1
          THE FORCE     EQUILIBRIUM RESPONSE WAS LINEAR IN THIS INCREMENT

 ITERATION SUMMARY FOR THE INCREMENT:   1 TOTAL ITERATIONS, OF WHICH
   0 ARE SEVERE DISCONTINUITY ITERATIONS AND  1 ARE EQUILIBRIUM ITERATIONS.

 TIME INCREMENT COMPLETED  1.000E-02,  FRACTION OF STEP COMPLETED  8.000E-02
 STEP TIME COMPLETED       8.000E-02,  TOTAL TIME COMPLETED        8.000E-02


  INCREMENT     9 STARTS. ATTEMPT NUMBER  1, TIME INCREMENT  1.000E-02

  NUMBER OF EQUATIONS =        24     NUMBER OF FLOATING PT. OPERATIONS =  4.90E+03

     CHECK POINT   START OF SOLVER    

     CHECK POINT  END OF SOLVER       

       ELAPSED USER TIME (SEC)      =   0.0000    
       ELAPSED SYSTEM TIME (SEC)    =   0.0000    
       ELAPSED TOTAL CPU TIME (SEC) =   0.0000    
       ELAPSED WALLCLOCK TIME (SEC) =          0

               CONVERGENCE CHECKS FOR EQUILIBRIUM ITERATION     1


 AVERAGE FORCE                       100.       TIME AVG. FORCE        55.0    
 LARGEST RESIDUAL FORCE            -2.943E-27   AT NODE          6   DOF  3
 LARGEST INCREMENT OF DISP.         1.000E-03   AT NODE          2   DOF  1
 LARGEST CORRECTION TO DISP.        2.974E-28   AT NODE          8   DOF  2
          THE FORCE     EQUILIBRIUM RESPONSE WAS LINEAR IN THIS INCREMENT

 ITERATION SUMMARY FOR THE INCREMENT:   1 TOTAL ITERATIONS, OF WHICH
   0 ARE SEVERE DISCONTINUITY ITERATIONS AND  1 ARE EQUILIBRIUM ITERATIONS.

 TIME INCREMENT COMPLETED  1.000E-02,  FRACTION OF STEP COMPLETED  9.000E-02
 STEP TIME COMPLETED       9.000E-02,  TOTAL TIME COMPLETED        9.000E-02


  INCREMENT    10 STARTS. ATTEMPT NUMBER  1, TIME INCREMENT  1.000E-02

  NUMBER OF EQUATIONS =        24     NUMBER OF FLOATING PT. OPERATIONS =  4.90E+03

     CHECK POINT   START OF SOLVER    

     CHECK POINT  END OF SOLVER       

       ELAPSED USER TIME (SEC)      =   0.0000    
       ELAPSED SYSTEM TIME (SEC)    =   0.0000    
       ELAPSED TOTAL CPU TIME (SEC) =   0.0000    
       ELAPSED WALLCLOCK TIME (SEC) =          0

               CONVERGENCE CHECKS FOR EQUILIBRIUM ITERATION     1


 AVERAGE FORCE                       111.       TIME AVG. FORCE        60.6    
 LARGEST RESIDUAL FORCE             1.143E-28   AT NODE          8   DOF  2
 LARGEST INCREMENT OF DISP.         1.000E-03   AT NODE          2   DOF  1
 LARGEST CORRECTION TO DISP.        1.735E-18   AT NODE          2   DOF  1
          THE FORCE     EQUILIBRIUM RESPONSE WAS LINEAR IN THIS INCREMENT

 ITERATION SUMMARY FOR THE INCREMENT:   1 TOTAL ITERATIONS, OF WHICH
   0 ARE SEVERE DISCONTINUITY ITERATIONS AND  1 ARE EQUILIBRIUM ITERATIONS.

 TIME INCREMENT COMPLETED  1.000E-02,  FRACTION OF STEP COMPLETED  0.100    
 STEP TIME COMPLETED       0.100    ,  TOTAL TIME COMPLETED        0.100    


  INCREMENT    11 STARTS. ATTEMPT NUMBER  1, TIME INCREMENT  1.000E-02

  NUMBER OF EQUATIONS =        24     NUMBER OF FLOATING PT. OPERATIONS =  4.90E+03

     CHECK POINT   START OF SOLVER    

     CHECK POINT  END OF SOLVER       

       ELAPSED USER TIME (SEC)      =   0.0000    
       ELAPSED SYSTEM TIME (SEC)    =   0.0000    
       ELAPSED TOTAL CPU TIME (SEC) =   0.0000    
       ELAPSED WALLCLOCK TIME (SEC) =          0

               CONVERGENCE CHECKS FOR EQUILIBRIUM ITERATION     1


 AVERAGE FORCE                       123.       TIME AVG. FORCE        66.3    
 LARGEST RESIDUAL FORCE            -1.673E-29   AT NODE          5   DOF  3
 LARGEST INCREMENT OF DISP.         1.000E-03   AT NODE          2   DOF  1
 LARGEST CORRECTION TO DISP.       -1.735E-18   AT NODE          2   DOF  1
          THE FORCE     EQUILIBRIUM RESPONSE WAS LINEAR IN THIS INCREMENT

 ITERATION SUMMARY FOR THE INCREMENT:   1 TOTAL ITERATIONS, OF WHICH
   0 ARE SEVERE DISCONTINUITY ITERATIONS AND  1 ARE EQUILIBRIUM ITERATIONS.

 TIME INCREMENT COMPLETED  1.000E-02,  FRACTION OF STEP COMPLETED  0.110    
 STEP TIME COMPLETED       0.110    ,  TOTAL TIME COMPLETED        0.110    


  INCREMENT    12 STARTS. ATTEMPT NUMBER  1, TIME INCREMENT  1.000E-02

  NUMBER OF EQUATIONS =        24     NUMBER OF FLOATING PT. OPERATIONS =  4.90E+03

     CHECK POINT   START OF SOLVER    

     CHECK POINT  END OF SOLVER       

       ELAPSED USER TIME (SEC)      =   0.0000    
       ELAPSED SYSTEM TIME (SEC)    =   0.0000    
       ELAPSED TOTAL CPU TIME (SEC) =   0.0000    
       ELAPSED WALLCLOCK TIME (SEC) =          0

               CONVERGENCE CHECKS FOR EQUILIBRIUM ITERATION     1


 AVERAGE FORCE                       134.       TIME AVG. FORCE        71.9    
 LARGEST RESIDUAL FORCE             9.793E-31   AT NODE          6   DOF  3
 LARGEST INCREMENT OF DISP.         1.000E-03   AT NODE          2   DOF  1
 LARGEST CORRECTION TO DISP.       -3.390E-30   AT NODE          5   DOF  3
          THE FORCE     EQUILIBRIUM RESPONSE WAS LINEAR IN THIS INCREMENT

 ITERATION SUMMARY FOR THE INCREMENT:   1 TOTAL ITERATIONS, OF WHICH
   0 ARE SEVERE DISCONTINUITY ITERATIONS AND  1 ARE EQUILIBRIUM ITERATIONS.

 TIME INCREMENT COMPLETED  1.000E-02,  FRACTION OF STEP COMPLETED  0.120    
 STEP TIME COMPLETED       0.120    ,  TOTAL TIME COMPLETED        0.120    


  INCREMENT    13 STARTS. ATTEMPT NUMBER  1, TIME INCREMENT  1.000E-02

  NUMBER OF EQUATIONS =        24     NUMBER OF FLOATING PT. OPERATIONS =  4.90E+03

     CHECK POINT   START OF SOLVER    

     CHECK POINT  END OF SOLVER       

       ELAPSED USER TIME (SEC)      =   0.0000    
       ELAPSED SYSTEM TIME (SEC)    =   0.0000    
       ELAPSED TOTAL CPU TIME (SEC) =   0.0000    
       ELAPSED WALLCLOCK TIME (SEC) =          0

               CONVERGENCE CHECKS FOR EQUILIBRIUM ITERATION     1


 AVERAGE FORCE                       145.       TIME AVG. FORCE        77.5    
 LARGEST RESIDUAL FORCE            -1.036E-31   AT NODE          6   DOF  3
 LARGEST INCREMENT OF DISP.         1.000E-03   AT NODE          2   DOF  1
 LARGEST CORRECTION TO DISP.        3.317E-30   AT NODE          8   DOF  2
          THE FORCE     EQUILIBRIUM RESPONSE WAS LINEAR IN THIS INCREMENT

 ITERATION SUMMARY FOR THE INCREMENT:   1 TOTAL ITERATIONS, OF WHICH
   0 ARE SEVERE DISCONTINUITY ITERATIONS AND  1 ARE EQUILIBRIUM ITERATIONS.

 TIME INCREMENT COMPLETED  1.000E-02,  FRACTION OF STEP COMPLETED  0.130    
 STEP TIME COMPLETED       0.130    ,  TOTAL TIME COMPLETED        0.130    


  INCREMENT    14 STARTS. ATTEMPT NUMBER  1, TIME INCREMENT  1.000E-02

  NUMBER OF EQUATIONS =        24     NUMBER OF FLOATING PT. OPERATIONS =  4.90E+03

     CHECK POINT   START OF SOLVER    

     CHECK POINT  END OF SOLVER       

       ELAPSED USER TIME (SEC)      =   0.0000    
       ELAPSED SYSTEM TIME (SEC)    =   0.0000    
       ELAPSED TOTAL CPU TIME (SEC) =   0.0000    
       ELAPSED WALLCLOCK TIME (SEC) =          0

               CONVERGENCE CHECKS FOR EQUILIBRIUM ITERATION     1


 AVERAGE FORCE                       156.       TIME AVG. FORCE        83.1    
 LARGEST RESIDUAL FORCE             3.705E-31   AT NODE          5   DOF  3
 LARGEST INCREMENT OF DISP.         1.000E-03   AT NODE          2   DOF  1
 LARGEST CORRECTION TO DISP.        1.735E-18   AT NODE          2   DOF  1
          THE FORCE     EQUILIBRIUM RESPONSE WAS LINEAR IN THIS INCREMENT

 ITERATION SUMMARY FOR THE INCREMENT:   1 TOTAL ITERATIONS, OF WHICH
   0 ARE SEVERE DISCONTINUITY ITERATIONS AND  1 ARE EQUILIBRIUM ITERATIONS.

 TIME INCREMENT COMPLETED  1.000E-02,  FRACTION OF STEP COMPLETED  0.140    
 STEP TIME COMPLETED       0.140    ,  TOTAL TIME COMPLETED        0.140    


  INCREMENT    15 STARTS. ATTEMPT NUMBER  1, TIME INCREMENT  1.000E-02

  NUMBER OF EQUATIONS =        24     NUMBER OF FLOATING PT. OPERATIONS =  4.90E+03

     CHECK POINT   START OF SOLVER    

     CHECK POINT  END OF SOLVER       

       ELAPSED USER TIME (SEC)      =   0.0000    
       ELAPSED SYSTEM TIME (SEC)    =   0.0000    
       ELAPSED TOTAL CPU TIME (SEC) =   0.0000    
       ELAPSED WALLCLOCK TIME (SEC) =          0

               CONVERGENCE CHECKS FOR EQUILIBRIUM ITERATION     1


 AVERAGE FORCE                       167.       TIME AVG. FORCE        88.6    
 LARGEST RESIDUAL FORCE             1.654E-33   AT NODE          8   DOF  2
 LARGEST INCREMENT OF DISP.         1.000E-03   AT NODE          2   DOF  1
 LARGEST CORRECTION TO DISP.       -3.294E-30   AT NODE          3   DOF  2
          THE FORCE     EQUILIBRIUM RESPONSE WAS LINEAR IN THIS INCREMENT

 ITERATION SUMMARY FOR THE INCREMENT:   1 TOTAL ITERATIONS, OF WHICH
   0 ARE SEVERE DISCONTINUITY ITERATIONS AND  1 ARE EQUILIBRIUM ITERATIONS.

 TIME INCREMENT COMPLETED  1.000E-02,  FRACTION OF STEP COMPLETED  0.150    
 STEP TIME COMPLETED       0.150    ,  TOTAL TIME COMPLETED        0.150    


  INCREMENT    16 STARTS. ATTEMPT NUMBER  1, TIME INCREMENT  1.000E-02

  NUMBER OF EQUATIONS =        24     NUMBER OF FLOATING PT. OPERATIONS =  4.90E+03

     CHECK POINT   START OF SOLVER    

     CHECK POINT  END OF SOLVER       

       ELAPSED USER TIME (SEC)      =   0.0000    
       ELAPSED SYSTEM TIME (SEC)    =   0.0000    
       ELAPSED TOTAL CPU TIME (SEC) =   0.0000    
       ELAPSED WALLCLOCK TIME (SEC) =          0

               CONVERGENCE CHECKS FOR EQUILIBRIUM ITERATION     1


 AVERAGE FORCE                       178.       TIME AVG. FORCE        94.2    
 LARGEST RESIDUAL FORCE            -1.348E-33   AT NODE          8   DOF  2
 LARGEST INCREMENT OF DISP.         1.000E-03   AT NODE          2   DOF  1
 LARGEST CORRECTION TO DISP.       -3.285E-30   AT NODE          5   DOF  3
          THE FORCE     EQUILIBRIUM RESPONSE WAS LINEAR IN THIS INCREMENT

 ITERATION SUMMARY FOR THE INCREMENT:   1 TOTAL ITERATIONS, OF WHICH
   0 ARE SEVERE DISCONTINUITY ITERATIONS AND  1 ARE EQUILIBRIUM ITERATIONS.

 TIME INCREMENT COMPLETED  1.000E-02,  FRACTION OF STEP COMPLETED  0.160    
 STEP TIME COMPLETED       0.160    ,  TOTAL TIME COMPLETED        0.160    


  INCREMENT    17 STARTS. ATTEMPT NUMBER  1, TIME INCREMENT  1.000E-02

  NUMBER OF EQUATIONS =        24     NUMBER OF FLOATING PT. OPERATIONS =  4.90E+03

     CHECK POINT   START OF SOLVER    

     CHECK POINT  END OF SOLVER       

       ELAPSED USER TIME (SEC)      =   0.0000    
       ELAPSED SYSTEM TIME (SEC)    =   0.0000    
       ELAPSED TOTAL CPU TIME (SEC) =   0.0000    
       ELAPSED WALLCLOCK TIME (SEC) =          0

               CONVERGENCE CHECKS FOR EQUILIBRIUM ITERATION     1


 AVERAGE FORCE                       189.       TIME AVG. FORCE        99.8    
 LARGEST RESIDUAL FORCE             3.762E-35   AT NODE          6   DOF  3
 LARGEST INCREMENT OF DISP.         1.000E-03   AT NODE          2   DOF  1
 LARGEST CORRECTION TO DISP.        3.277E-30   AT NODE          7   DOF  2
          THE FORCE     EQUILIBRIUM RESPONSE WAS LINEAR IN THIS INCREMENT

 ITERATION SUMMARY FOR THE INCREMENT:   1 TOTAL ITERATIONS, OF WHICH
   0 ARE SEVERE DISCONTINUITY ITERATIONS AND  1 ARE EQUILIBRIUM ITERATIONS.

 TIME INCREMENT COMPLETED  1.000E-02,  FRACTION OF STEP COMPLETED  0.170    
 STEP TIME COMPLETED       0.170    ,  TOTAL TIME COMPLETED        0.170    


  INCREMENT    18 STARTS. ATTEMPT NUMBER  1, TIME INCREMENT  1.000E-02

  NUMBER OF EQUATIONS =        24     NUMBER OF FLOATING PT. OPERATIONS =  4.90E+03

     CHECK POINT   START OF SOLVER    

     CHECK POINT  END OF SOLVER       

       ELAPSED USER TIME (SEC)      =   0.0000    
       ELAPSED SYSTEM TIME (SEC)    =   0.0000    
       ELAPSED TOTAL CPU TIME (SEC) =   0.0000    
       ELAPSED WALLCLOCK TIME (SEC) =          0

               CONVERGENCE CHECKS FOR EQUILIBRIUM ITERATION     1


 AVERAGE FORCE                       200.       TIME AVG. FORCE        105.    
 LARGEST RESIDUAL FORCE            -1.053E-35   AT NODE          6   DOF  3
 LARGEST INCREMENT OF DISP.         1.000E-03   AT NODE          2   DOF  1
 LARGEST CORRECTION TO DISP.        3.269E-30   AT NODE          8   DOF  2
          THE FORCE     EQUILIBRIUM RESPONSE WAS LINEAR IN THIS INCREMENT

 ITERATION SUMMARY FOR THE INCREMENT:   1 TOTAL ITERATIONS, OF WHICH
   0 ARE SEVERE DISCONTINUITY ITERATIONS AND  1 ARE EQUILIBRIUM ITERATIONS.

 TIME INCREMENT COMPLETED  1.000E-02,  FRACTION OF STEP COMPLETED  0.180    
 STEP TIME COMPLETED       0.180    ,  TOTAL TIME COMPLETED        0.180    


  INCREMENT    19 STARTS. ATTEMPT NUMBER  1, TIME INCREMENT  1.000E-02

  NUMBER OF EQUATIONS =        24     NUMBER OF FLOATING PT. OPERATIONS =  4.90E+03

     CHECK POINT   START OF SOLVER    

     CHECK POINT  END OF SOLVER       

       ELAPSED USER TIME (SEC)      =   0.0000    
       ELAPSED SYSTEM TIME (SEC)    =   0.0000    
       ELAPSED TOTAL CPU TIME (SEC) =   0.0000    
       ELAPSED WALLCLOCK TIME (SEC) =          0

               CONVERGENCE CHECKS FOR EQUILIBRIUM ITERATION     1


 AVERAGE FORCE                       211.       TIME AVG. FORCE        111.    
 LARGEST RESIDUAL FORCE             9.028E-36   AT NODE          6   DOF  3
 LARGEST INCREMENT OF DISP.         1.000E-03   AT NODE          2   DOF  1
 LARGEST CORRECTION TO DISP.       -3.260E-30   AT NODE          6   DOF  3
          THE FORCE     EQUILIBRIUM RESPONSE WAS LINEAR IN THIS INCREMENT

 ITERATION SUMMARY FOR THE INCREMENT:   1 TOTAL ITERATIONS, OF WHICH
   0 ARE SEVERE DISCONTINUITY ITERATIONS AND  1 ARE EQUILIBRIUM ITERATIONS.

 TIME INCREMENT COMPLETED  1.000E-02,  FRACTION OF STEP COMPLETED  0.190    
 STEP TIME COMPLETED       0.190    ,  TOTAL TIME COMPLETED        0.190    


  INCREMENT    20 STARTS. ATTEMPT NUMBER  1, TIME INCREMENT  1.000E-02

  NUMBER OF EQUATIONS =        24     NUMBER OF FLOATING PT. OPERATIONS =  4.90E+03

     CHECK POINT   START OF SOLVER    

     CHECK POINT  END OF SOLVER       

       ELAPSED USER TIME (SEC)      =   0.0000    
       ELAPSED SYSTEM TIME (SEC)    =   0.0000    
       ELAPSED TOTAL CPU TIME (SEC) =   0.0000    
       ELAPSED WALLCLOCK TIME (SEC) =          0

               CONVERGENCE CHECKS FOR EQUILIBRIUM ITERATION     1


 AVERAGE FORCE                       222.       TIME AVG. FORCE        116.    
 LARGEST RESIDUAL FORCE            -6.019E-36   AT NODE          4   DOF  2
 LARGEST INCREMENT OF DISP.         1.000E-03   AT NODE          2   DOF  1
 LARGEST CORRECTION TO DISP.       -3.252E-30   AT NODE          5   DOF  3
          THE FORCE     EQUILIBRIUM RESPONSE WAS LINEAR IN THIS INCREMENT

 ITERATION SUMMARY FOR THE INCREMENT:   1 TOTAL ITERATIONS, OF WHICH
   0 ARE SEVERE DISCONTINUITY ITERATIONS AND  1 ARE EQUILIBRIUM ITERATIONS.

 TIME INCREMENT COMPLETED  1.000E-02,  FRACTION OF STEP COMPLETED  0.200    
 STEP TIME COMPLETED       0.200    ,  TOTAL TIME COMPLETED        0.200    


  INCREMENT    21 STARTS. ATTEMPT NUMBER  1, TIME INCREMENT  1.000E-02

  NUMBER OF EQUATIONS =        24     NUMBER OF FLOATING PT. OPERATIONS =  4.90E+03

     CHECK POINT   START OF SOLVER    

     CHECK POINT  END OF SOLVER       

       ELAPSED USER TIME (SEC)      =   0.0000    
       ELAPSED SYSTEM TIME (SEC)    =   0.0000    
       ELAPSED TOTAL CPU TIME (SEC) =   0.0000    
       ELAPSED WALLCLOCK TIME (SEC) =          0

               CONVERGENCE CHECKS FOR EQUILIBRIUM ITERATION     1


 AVERAGE FORCE                       233.       TIME AVG. FORCE        122.    
 LARGEST RESIDUAL FORCE            -7.523E-36   AT NODE          6   DOF  3
 LARGEST INCREMENT OF DISP.         1.000E-03   AT NODE          2   DOF  1
 LARGEST CORRECTION TO DISP.        3.244E-30   AT NODE          8   DOF  3
          THE FORCE     EQUILIBRIUM RESPONSE WAS LINEAR IN THIS INCREMENT

 ITERATION SUMMARY FOR THE INCREMENT:   1 TOTAL ITERATIONS, OF WHICH
   0 ARE SEVERE DISCONTINUITY ITERATIONS AND  1 ARE EQUILIBRIUM ITERATIONS.

 TIME INCREMENT COMPLETED  1.000E-02,  FRACTION OF STEP COMPLETED  0.210    
 STEP TIME COMPLETED       0.210    ,  TOTAL TIME COMPLETED        0.210    


  INCREMENT    22 STARTS. ATTEMPT NUMBER  1, TIME INCREMENT  1.000E-02

  NUMBER OF EQUATIONS =        24     NUMBER OF FLOATING PT. OPERATIONS =  4.90E+03

     CHECK POINT   START OF SOLVER    

     CHECK POINT  END OF SOLVER       

       ELAPSED USER TIME (SEC)      =   0.0000    
       ELAPSED SYSTEM TIME (SEC)    =   0.0000    
       ELAPSED TOTAL CPU TIME (SEC) =   0.0000    
       ELAPSED WALLCLOCK TIME (SEC) =          0

               CONVERGENCE CHECKS FOR EQUILIBRIUM ITERATION     1


 AVERAGE FORCE                       244.       TIME AVG. FORCE        128.    
 LARGEST RESIDUAL FORCE             1.204E-35   AT NODE          8   DOF  3
 LARGEST INCREMENT OF DISP.         1.000E-03   AT NODE          2   DOF  1
 LARGEST CORRECTION TO DISP.       -3.236E-30   AT NODE          6   DOF  3
          THE FORCE     EQUILIBRIUM RESPONSE WAS LINEAR IN THIS INCREMENT

 ITERATION SUMMARY FOR THE INCREMENT:   1 TOTAL ITERATIONS, OF WHICH
   0 ARE SEVERE DISCONTINUITY ITERATIONS AND  1 ARE EQUILIBRIUM ITERATIONS.

 TIME INCREMENT COMPLETED  1.000E-02,  FRACTION OF STEP COMPLETED  0.220    
 STEP TIME COMPLETED       0.220    ,  TOTAL TIME COMPLETED        0.220    


  INCREMENT    23 STARTS. ATTEMPT NUMBER  1, TIME INCREMENT  1.000E-02

  NUMBER OF EQUATIONS =        24     NUMBER OF FLOATING PT. OPERATIONS =  4.90E+03

     CHECK POINT   START OF SOLVER    

     CHECK POINT  END OF SOLVER       

       ELAPSED USER TIME (SEC)      =   0.0000    
       ELAPSED SYSTEM TIME (SEC)    =   0.0000    
       ELAPSED TOTAL CPU TIME (SEC) =   0.0000    
       ELAPSED WALLCLOCK TIME (SEC) =          0

               CONVERGENCE CHECKS FOR EQUILIBRIUM ITERATION     1


 AVERAGE FORCE                       253.       TIME AVG. FORCE        133.    
 LARGEST RESIDUAL FORCE             4.514E-36   AT NODE          4   DOF  2
 LARGEST INCREMENT OF DISP.         1.000E-03   AT NODE          2   DOF  1
 LARGEST CORRECTION TO DISP.        3.228E-30   AT NODE          8   DOF  3
          THE FORCE     EQUILIBRIUM RESPONSE WAS LINEAR IN THIS INCREMENT

 ITERATION SUMMARY FOR THE INCREMENT:   1 TOTAL ITERATIONS, OF WHICH
   0 ARE SEVERE DISCONTINUITY ITERATIONS AND  1 ARE EQUILIBRIUM ITERATIONS.

 TIME INCREMENT COMPLETED  1.000E-02,  FRACTION OF STEP COMPLETED  0.230    
 STEP TIME COMPLETED       0.230    ,  TOTAL TIME COMPLETED        0.230    


  INCREMENT    24 STARTS. ATTEMPT NUMBER  1, TIME INCREMENT  1.000E-02

  NUMBER OF EQUATIONS =        24     NUMBER OF FLOATING PT. OPERATIONS =  4.90E+03

     CHECK POINT   START OF SOLVER    

     CHECK POINT  END OF SOLVER       

       ELAPSED USER TIME (SEC)      =   0.0000    
       ELAPSED SYSTEM TIME (SEC)    =   0.0000    
       ELAPSED TOTAL CPU TIME (SEC) =   0.0000    
       ELAPSED WALLCLOCK TIME (SEC) =          0

               CONVERGENCE CHECKS FOR EQUILIBRIUM ITERATION     1


 AVERAGE FORCE                       259.       TIME AVG. FORCE        138.    
 LARGEST RESIDUAL FORCE             1.354E-35   AT NODE          6   DOF  3
 LARGEST INCREMENT OF DISP.         1.000E-03   AT NODE          2   DOF  1
 LARGEST CORRECTION TO DISP.       -1.054E-28   AT NODE          8   DOF  3
          THE FORCE     EQUILIBRIUM RESPONSE WAS LINEAR IN THIS INCREMENT

 ITERATION SUMMARY FOR THE INCREMENT:   1 TOTAL ITERATIONS, OF WHICH
   0 ARE SEVERE DISCONTINUITY ITERATIONS AND  1 ARE EQUILIBRIUM ITERATIONS.

 TIME INCREMENT COMPLETED  1.000E-02,  FRACTION OF STEP COMPLETED  0.240    
 STEP TIME COMPLETED       0.240    ,  TOTAL TIME COMPLETED        0.240    


  INCREMENT    25 STARTS. ATTEMPT NUMBER  1, TIME INCREMENT  1.000E-02

  NUMBER OF EQUATIONS =        24     NUMBER OF FLOATING PT. OPERATIONS =  4.90E+03

     CHECK POINT   START OF SOLVER    

     CHECK POINT  END OF SOLVER       

       ELAPSED USER TIME (SEC)      =   0.0000    
       ELAPSED SYSTEM TIME (SEC)    =   0.0000    
       ELAPSED TOTAL CPU TIME (SEC) =   0.0000    
       ELAPSED WALLCLOCK TIME (SEC) =          0

               CONVERGENCE CHECKS FOR EQUILIBRIUM ITERATION     1


 AVERAGE FORCE                       264.       TIME AVG. FORCE        143.    
 LARGEST RESIDUAL FORCE            -3.009E-36   AT NODE          5   DOF  3
 LARGEST INCREMENT OF DISP.         1.000E-03   AT NODE          2   DOF  1
 LARGEST CORRECTION TO DISP.        3.176E-28   AT NODE          6   DOF  3
          THE FORCE     EQUILIBRIUM RESPONSE WAS LINEAR IN THIS INCREMENT

 ITERATION SUMMARY FOR THE INCREMENT:   1 TOTAL ITERATIONS, OF WHICH
   0 ARE SEVERE DISCONTINUITY ITERATIONS AND  1 ARE EQUILIBRIUM ITERATIONS.

 TIME INCREMENT COMPLETED  1.000E-02,  FRACTION OF STEP COMPLETED  0.250    
 STEP TIME COMPLETED       0.250    ,  TOTAL TIME COMPLETED        0.250    


  INCREMENT    26 STARTS. ATTEMPT NUMBER  1, TIME INCREMENT  1.000E-02

  NUMBER OF EQUATIONS =        24     NUMBER OF FLOATING PT. OPERATIONS =  4.90E+03

     CHECK POINT   START OF SOLVER    

     CHECK POINT  END OF SOLVER       

       ELAPSED USER TIME (SEC)      =   0.0000    
       ELAPSED SYSTEM TIME (SEC)    =   0.0000    
       ELAPSED TOTAL CPU TIME (SEC) =   0.0000    
       ELAPSED WALLCLOCK TIME (SEC) =          0

               CONVERGENCE CHECKS FOR EQUILIBRIUM ITERATION     1


 AVERAGE FORCE                       269.       TIME AVG. FORCE        148.    
 LARGEST RESIDUAL FORCE             4.514E-36   AT NODE          6   DOF  3
 LARGEST INCREMENT OF DISP.         1.000E-03   AT NODE          2   DOF  1
 LARGEST CORRECTION TO DISP.       -4.155E-30   AT NODE          3   DOF  2
          THE FORCE     EQUILIBRIUM RESPONSE WAS LINEAR IN THIS INCREMENT

 ITERATION SUMMARY FOR THE INCREMENT:   1 TOTAL ITERATIONS, OF WHICH
   0 ARE SEVERE DISCONTINUITY ITERATIONS AND  1 ARE EQUILIBRIUM ITERATIONS.

 TIME INCREMENT COMPLETED  1.000E-02,  FRACTION OF STEP COMPLETED  0.260    
 STEP TIME COMPLETED       0.260    ,  TOTAL TIME COMPLETED        0.260    


  INCREMENT    27 STARTS. ATTEMPT NUMBER  1, TIME INCREMENT  1.000E-02

  NUMBER OF EQUATIONS =        24     NUMBER OF FLOATING PT. OPERATIONS =  4.90E+03

     CHECK POINT   START OF SOLVER    

     CHECK POINT  END OF SOLVER       

       ELAPSED USER TIME (SEC)      =   0.0000    
       ELAPSED SYSTEM TIME (SEC)    =   0.0000    
       ELAPSED TOTAL CPU TIME (SEC) =   0.0000    
       ELAPSED WALLCLOCK TIME (SEC) =          0

               CONVERGENCE CHECKS FOR EQUILIBRIUM ITERATION     1


 AVERAGE FORCE                       275.       TIME AVG. FORCE        153.    
 LARGEST RESIDUAL FORCE             6.019E-36   AT NODE          5   DOF  3
 LARGEST INCREMENT OF DISP.         1.000E-03   AT NODE          2   DOF  1
 LARGEST CORRECTION TO DISP.       -4.144E-30   AT NODE          4   DOF  2
          THE FORCE     EQUILIBRIUM RESPONSE WAS LINEAR IN THIS INCREMENT

 ITERATION SUMMARY FOR THE INCREMENT:   1 TOTAL ITERATIONS, OF WHICH
   0 ARE SEVERE DISCONTINUITY ITERATIONS AND  1 ARE EQUILIBRIUM ITERATIONS.

 TIME INCREMENT COMPLETED  1.000E-02,  FRACTION OF STEP COMPLETED  0.270    
 STEP TIME COMPLETED       0.270    ,  TOTAL TIME COMPLETED        0.270    


  INCREMENT    28 STARTS. ATTEMPT NUMBER  1, TIME INCREMENT  1.000E-02

  NUMBER OF EQUATIONS =        24     NUMBER OF FLOATING PT. OPERATIONS =  4.90E+03

     CHECK POINT   START OF SOLVER    

     CHECK POINT  END OF SOLVER       

       ELAPSED USER TIME (SEC)      =   0.0000    
       ELAPSED SYSTEM TIME (SEC)    =   0.0000    
       ELAPSED TOTAL CPU TIME (SEC) =   0.0000    
       ELAPSED WALLCLOCK TIME (SEC) =          0

               CONVERGENCE CHECKS FOR EQUILIBRIUM ITERATION     1


 AVERAGE FORCE                       280.       TIME AVG. FORCE        157.    
 LARGEST RESIDUAL FORCE            -3.009E-36   AT NODE          5   DOF  3
 LARGEST INCREMENT OF DISP.         1.000E-03   AT NODE          2   DOF  1
 LARGEST CORRECTION TO DISP.       -4.133E-30   AT NODE          6   DOF  3
          THE FORCE     EQUILIBRIUM RESPONSE WAS LINEAR IN THIS INCREMENT

 ITERATION SUMMARY FOR THE INCREMENT:   1 TOTAL ITERATIONS, OF WHICH
   0 ARE SEVERE DISCONTINUITY ITERATIONS AND  1 ARE EQUILIBRIUM ITERATIONS.

 TIME INCREMENT COMPLETED  1.000E-02,  FRACTION OF STEP COMPLETED  0.280    
 STEP TIME COMPLETED       0.280    ,  TOTAL TIME COMPLETED        0.280    


  INCREMENT    29 STARTS. ATTEMPT NUMBER  1, TIME INCREMENT  1.000E-02

  NUMBER OF EQUATIONS =        24     NUMBER OF FLOATING PT. OPERATIONS =  4.90E+03

     CHECK POINT   START OF SOLVER    

     CHECK POINT  END OF SOLVER       

       ELAPSED USER TIME (SEC)      =   0.0000    
       ELAPSED SYSTEM TIME (SEC)    =   0.0000    
       ELAPSED TOTAL CPU TIME (SEC) =   0.0000    
       ELAPSED WALLCLOCK TIME (SEC) =          0

               CONVERGENCE CHECKS FOR EQUILIBRIUM ITERATION     1


 AVERAGE FORCE                       286.       TIME AVG. FORCE        162.    
 LARGEST RESIDUAL FORCE            -6.019E-36   AT NODE          5   DOF  3
 LARGEST INCREMENT OF DISP.         1.000E-03   AT NODE          2   DOF  1
 LARGEST CORRECTION TO DISP.       -4.123E-30   AT NODE          3   DOF  2
          THE FORCE     EQUILIBRIUM RESPONSE WAS LINEAR IN THIS INCREMENT

 ITERATION SUMMARY FOR THE INCREMENT:   1 TOTAL ITERATIONS, OF WHICH
   0 ARE SEVERE DISCONTINUITY ITERATIONS AND  1 ARE EQUILIBRIUM ITERATIONS.

 TIME INCREMENT COMPLETED  1.000E-02,  FRACTION OF STEP COMPLETED  0.290    
 STEP TIME COMPLETED       0.290    ,  TOTAL TIME COMPLETED        0.290    


  INCREMENT    30 STARTS. ATTEMPT NUMBER  1, TIME INCREMENT  1.000E-02

  NUMBER OF EQUATIONS =        24     NUMBER OF FLOATING PT. OPERATIONS =  4.90E+03

     CHECK POINT   START OF SOLVER    

     CHECK POINT  END OF SOLVER       

       ELAPSED USER TIME (SEC)      =   0.0000    
       ELAPSED SYSTEM TIME (SEC)    =   0.0000    
       ELAPSED TOTAL CPU TIME (SEC) =   0.0000    
       ELAPSED WALLCLOCK TIME (SEC) =          0

               CONVERGENCE CHECKS FOR EQUILIBRIUM ITERATION     1


 AVERAGE FORCE                       291.       TIME AVG. FORCE        166.    
 LARGEST RESIDUAL FORCE            -7.523E-36   AT NODE          5   DOF  3
 LARGEST INCREMENT OF DISP.         1.000E-03   AT NODE          2   DOF  1
 LARGEST CORRECTION TO DISP.       -4.112E-30   AT NODE          5   DOF  3
          THE FORCE     EQUILIBRIUM RESPONSE WAS LINEAR IN THIS INCREMENT

 ITERATION SUMMARY FOR THE INCREMENT:   1 TOTAL ITERATIONS, OF WHICH
   0 ARE SEVERE DISCONTINUITY ITERATIONS AND  1 ARE EQUILIBRIUM ITERATIONS.

 TIME INCREMENT COMPLETED  1.000E-02,  FRACTION OF STEP COMPLETED  0.300    
 STEP TIME COMPLETED       0.300    ,  TOTAL TIME COMPLETED        0.300    


  INCREMENT    31 STARTS. ATTEMPT NUMBER  1, TIME INCREMENT  1.000E-02

  NUMBER OF EQUATIONS =        24     NUMBER OF FLOATING PT. OPERATIONS =  4.90E+03

     CHECK POINT   START OF SOLVER    

     CHECK POINT  END OF SOLVER       

       ELAPSED USER TIME (SEC)      =   0.0000    
       ELAPSED SYSTEM TIME (SEC)    =   0.0000    
       ELAPSED TOTAL CPU TIME (SEC) =   0.0000    
       ELAPSED WALLCLOCK TIME (SEC) =          0

               CONVERGENCE CHECKS FOR EQUILIBRIUM ITERATION     1


 AVERAGE FORCE                       297.       TIME AVG. FORCE        170.    
 LARGEST RESIDUAL FORCE             7.523E-36   AT NODE          5   DOF  3
 LARGEST INCREMENT OF DISP.         1.000E-03   AT NODE          2   DOF  1
 LARGEST CORRECTION TO DISP.       -4.101E-30   AT NODE          4   DOF  2
          THE FORCE     EQUILIBRIUM RESPONSE WAS LINEAR IN THIS INCREMENT

 ITERATION SUMMARY FOR THE INCREMENT:   1 TOTAL ITERATIONS, OF WHICH
   0 ARE SEVERE DISCONTINUITY ITERATIONS AND  1 ARE EQUILIBRIUM ITERATIONS.

 TIME INCREMENT COMPLETED  1.000E-02,  FRACTION OF STEP COMPLETED  0.310    
 STEP TIME COMPLETED       0.310    ,  TOTAL TIME COMPLETED        0.310    


  INCREMENT    32 STARTS. ATTEMPT NUMBER  1, TIME INCREMENT  1.000E-02

  NUMBER OF EQUATIONS =        24     NUMBER OF FLOATING PT. OPERATIONS =  4.90E+03

     CHECK POINT   START OF SOLVER    

     CHECK POINT  END OF SOLVER       

       ELAPSED USER TIME (SEC)      =   0.0000    
       ELAPSED SYSTEM TIME (SEC)    =   0.0000    
       ELAPSED TOTAL CPU TIME (SEC) =   0.0000    
       ELAPSED WALLCLOCK TIME (SEC) =          0

               CONVERGENCE CHECKS FOR EQUILIBRIUM ITERATION     1


 AVERAGE FORCE                       302.       TIME AVG. FORCE        174.    
 LARGEST RESIDUAL FORCE             1.655E-35   AT NODE          5   DOF  3
 LARGEST INCREMENT OF DISP.         1.000E-03   AT NODE          2   DOF  1
 LARGEST CORRECTION TO DISP.       -4.090E-30   AT NODE          6   DOF  3
          THE FORCE     EQUILIBRIUM RESPONSE WAS LINEAR IN THIS INCREMENT

 ITERATION SUMMARY FOR THE INCREMENT:   1 TOTAL ITERATIONS, OF WHICH
   0 ARE SEVERE DISCONTINUITY ITERATIONS AND  1 ARE EQUILIBRIUM ITERATIONS.

 TIME INCREMENT COMPLETED  1.000E-02,  FRACTION OF STEP COMPLETED  0.320    
 STEP TIME COMPLETED       0.320    ,  TOTAL TIME COMPLETED        0.320    


  INCREMENT    33 STARTS. ATTEMPT NUMBER  1, TIME INCREMENT  1.000E-02

  NUMBER OF EQUATIONS =        24     NUMBER OF FLOATING PT. OPERATIONS =  4.90E+03

     CHECK POINT   START OF SOLVER    

     CHECK POINT  END OF SOLVER       

       ELAPSED USER TIME (SEC)      =   0.0000    
       ELAPSED SYSTEM TIME (SEC)    =   0.0000    
       ELAPSED TOTAL CPU TIME (SEC) =   0.0000    
       ELAPSED WALLCLOCK TIME (SEC) =          0

               CONVERGENCE CHECKS FOR EQUILIBRIUM ITERATION     1


 AVERAGE FORCE                       308.       TIME AVG. FORCE        178.    
 LARGEST RESIDUAL FORCE             6.019E-36   AT NODE          6   DOF  3
 LARGEST INCREMENT OF DISP.         1.000E-03   AT NODE          2   DOF  1
 LARGEST CORRECTION TO DISP.       -4.080E-30   AT NODE          4   DOF  2
          THE FORCE     EQUILIBRIUM RESPONSE WAS LINEAR IN THIS INCREMENT

 ITERATION SUMMARY FOR THE INCREMENT:   1 TOTAL ITERATIONS, OF WHICH
   0 ARE SEVERE DISCONTINUITY ITERATIONS AND  1 ARE EQUILIBRIUM ITERATIONS.

 TIME INCREMENT COMPLETED  1.000E-02,  FRACTION OF STEP COMPLETED  0.330    
 STEP TIME COMPLETED       0.330    ,  TOTAL TIME COMPLETED        0.330    


  INCREMENT    34 STARTS. ATTEMPT NUMBER  1, TIME INCREMENT  1.000E-02

  NUMBER OF EQUATIONS =        24     NUMBER OF FLOATING PT. OPERATIONS =  4.90E+03

     CHECK POINT   START OF SOLVER    

     CHECK POINT  END OF SOLVER       

       ELAPSED USER TIME (SEC)      =   0.0000    
       ELAPSED SYSTEM TIME (SEC)    =   0.0000    
       ELAPSED TOTAL CPU TIME (SEC) =   0.0000    
       ELAPSED WALLCLOCK TIME (SEC) =          0

               CONVERGENCE CHECKS FOR EQUILIBRIUM ITERATION     1


 AVERAGE FORCE                       313.       TIME AVG. FORCE        182.    
 LARGEST RESIDUAL FORCE             3.009E-36   AT NODE          4   DOF  2
 LARGEST INCREMENT OF DISP.         1.000E-03   AT NODE          2   DOF  1
 LARGEST CORRECTION TO DISP.       -4.069E-30   AT NODE          5   DOF  3
          THE FORCE     EQUILIBRIUM RESPONSE WAS LINEAR IN THIS INCREMENT

 ITERATION SUMMARY FOR THE INCREMENT:   1 TOTAL ITERATIONS, OF WHICH
   0 ARE SEVERE DISCONTINUITY ITERATIONS AND  1 ARE EQUILIBRIUM ITERATIONS.

 TIME INCREMENT COMPLETED  1.000E-02,  FRACTION OF STEP COMPLETED  0.340    
 STEP TIME COMPLETED       0.340    ,  TOTAL TIME COMPLETED        0.340    


  INCREMENT    35 STARTS. ATTEMPT NUMBER  1, TIME INCREMENT  1.000E-02

  NUMBER OF EQUATIONS =        24     NUMBER OF FLOATING PT. OPERATIONS =  4.90E+03

     CHECK POINT   START OF SOLVER    

     CHECK POINT  END OF SOLVER       

       ELAPSED USER TIME (SEC)      =   0.0000    
       ELAPSED SYSTEM TIME (SEC)    =   0.0000    
       ELAPSED TOTAL CPU TIME (SEC) =   0.0000    
       ELAPSED WALLCLOCK TIME (SEC) =          0

               CONVERGENCE CHECKS FOR EQUILIBRIUM ITERATION     1


 AVERAGE FORCE                       318.       TIME AVG. FORCE        186.    
 LARGEST RESIDUAL FORCE             9.028E-36   AT NODE          8   DOF  3
 LARGEST INCREMENT OF DISP.         1.000E-03   AT NODE          2   DOF  1
 LARGEST CORRECTION TO DISP.       -4.058E-30   AT NODE          5   DOF  3
          THE FORCE     EQUILIBRIUM RESPONSE WAS LINEAR IN THIS INCREMENT

 ITERATION SUMMARY FOR THE INCREMENT:   1 TOTAL ITERATIONS, OF WHICH
   0 ARE SEVERE DISCONTINUITY ITERATIONS AND  1 ARE EQUILIBRIUM ITERATIONS.

 TIME INCREMENT COMPLETED  1.000E-02,  FRACTION OF STEP COMPLETED  0.350    
 STEP TIME COMPLETED       0.350    ,  TOTAL TIME COMPLETED        0.350    


  INCREMENT    36 STARTS. ATTEMPT NUMBER  1, TIME INCREMENT  1.000E-02

  NUMBER OF EQUATIONS =        24     NUMBER OF FLOATING PT. OPERATIONS =  4.90E+03

     CHECK POINT   START OF SOLVER    

     CHECK POINT  END OF SOLVER       

       ELAPSED USER TIME (SEC)      =   0.0000    
       ELAPSED SYSTEM TIME (SEC)    =   0.0000    
       ELAPSED TOTAL CPU TIME (SEC) =   0.0000    
       ELAPSED WALLCLOCK TIME (SEC) =          0

               CONVERGENCE CHECKS FOR EQUILIBRIUM ITERATION     1


 AVERAGE FORCE                       324.       TIME AVG. FORCE        190.    
 LARGEST RESIDUAL FORCE            -7.523E-36   AT NODE          3   DOF  2
 LARGEST INCREMENT OF DISP.         1.000E-03   AT NODE          2   DOF  1
 LARGEST CORRECTION TO DISP.        4.048E-30   AT NODE          8   DOF  3
          THE FORCE     EQUILIBRIUM RESPONSE WAS LINEAR IN THIS INCREMENT

 ITERATION SUMMARY FOR THE INCREMENT:   1 TOTAL ITERATIONS, OF WHICH
   0 ARE SEVERE DISCONTINUITY ITERATIONS AND  1 ARE EQUILIBRIUM ITERATIONS.

 TIME INCREMENT COMPLETED  1.000E-02,  FRACTION OF STEP COMPLETED  0.360    
 STEP TIME COMPLETED       0.360    ,  TOTAL TIME COMPLETED        0.360    


  INCREMENT    37 STARTS. ATTEMPT NUMBER  1, TIME INCREMENT  1.000E-02

  NUMBER OF EQUATIONS =        24     NUMBER OF FLOATING PT. OPERATIONS =  4.90E+03

     CHECK POINT   START OF SOLVER    

     CHECK POINT  END OF SOLVER       

       ELAPSED USER TIME (SEC)      =   0.0000    
       ELAPSED SYSTEM TIME (SEC)    =   0.0000    
       ELAPSED TOTAL CPU TIME (SEC) =   0.0000    
       ELAPSED WALLCLOCK TIME (SEC) =          0

               CONVERGENCE CHECKS FOR EQUILIBRIUM ITERATION     1


 AVERAGE FORCE                       329.       TIME AVG. FORCE        194.    
 LARGEST RESIDUAL FORCE            -1.053E-35   AT NODE          6   DOF  3
 LARGEST INCREMENT OF DISP.         1.000E-03   AT NODE          2   DOF  1
 LARGEST CORRECTION TO DISP.       -4.037E-30   AT NODE          3   DOF  2
          THE FORCE     EQUILIBRIUM RESPONSE WAS LINEAR IN THIS INCREMENT

 ITERATION SUMMARY FOR THE INCREMENT:   1 TOTAL ITERATIONS, OF WHICH
   0 ARE SEVERE DISCONTINUITY ITERATIONS AND  1 ARE EQUILIBRIUM ITERATIONS.

 TIME INCREMENT COMPLETED  1.000E-02,  FRACTION OF STEP COMPLETED  0.370    
 STEP TIME COMPLETED       0.370    ,  TOTAL TIME COMPLETED        0.370    


  INCREMENT    38 STARTS. ATTEMPT NUMBER  1, TIME INCREMENT  1.000E-02

  NUMBER OF EQUATIONS =        24     NUMBER OF FLOATING PT. OPERATIONS =  4.90E+03

     CHECK POINT   START OF SOLVER    

     CHECK POINT  END OF SOLVER       

       ELAPSED USER TIME (SEC)      =   0.0000    
       ELAPSED SYSTEM TIME (SEC)    =   0.0000    
       ELAPSED TOTAL CPU TIME (SEC) =   0.0000    
       ELAPSED WALLCLOCK TIME (SEC) =          0

               CONVERGENCE CHECKS FOR EQUILIBRIUM ITERATION     1


 AVERAGE FORCE                       335.       TIME AVG. FORCE        198.    
 LARGEST RESIDUAL FORCE             7.523E-36   AT NODE          6   DOF  3
 LARGEST INCREMENT OF DISP.         1.000E-03   AT NODE          2   DOF  1
 LARGEST CORRECTION TO DISP.       -4.027E-30   AT NODE          6   DOF  3
          THE FORCE     EQUILIBRIUM RESPONSE WAS LINEAR IN THIS INCREMENT

 ITERATION SUMMARY FOR THE INCREMENT:   1 TOTAL ITERATIONS, OF WHICH
   0 ARE SEVERE DISCONTINUITY ITERATIONS AND  1 ARE EQUILIBRIUM ITERATIONS.

 TIME INCREMENT COMPLETED  1.000E-02,  FRACTION OF STEP COMPLETED  0.380    
 STEP TIME COMPLETED       0.380    ,  TOTAL TIME COMPLETED        0.380    


  INCREMENT    39 STARTS. ATTEMPT NUMBER  1, TIME INCREMENT  1.000E-02

  NUMBER OF EQUATIONS =        24     NUMBER OF FLOATING PT. OPERATIONS =  4.90E+03

     CHECK POINT   START OF SOLVER    

     CHECK POINT  END OF SOLVER       

       ELAPSED USER TIME (SEC)      =   0.0000    
       ELAPSED SYSTEM TIME (SEC)    =   0.0000    
       ELAPSED TOTAL CPU TIME (SEC) =   0.0000    
       ELAPSED WALLCLOCK TIME (SEC) =          0

               CONVERGENCE CHECKS FOR EQUILIBRIUM ITERATION     1


 AVERAGE FORCE                       340.       TIME AVG. FORCE        201.    
 LARGEST RESIDUAL FORCE            -1.354E-35   AT NODE          6   DOF  3
 LARGEST INCREMENT OF DISP.         1.000E-03   AT NODE          2   DOF  1
 LARGEST CORRECTION TO DISP.       -4.016E-30   AT NODE          3   DOF  2
          THE FORCE     EQUILIBRIUM RESPONSE WAS LINEAR IN THIS INCREMENT

 ITERATION SUMMARY FOR THE INCREMENT:   1 TOTAL ITERATIONS, OF WHICH
   0 ARE SEVERE DISCONTINUITY ITERATIONS AND  1 ARE EQUILIBRIUM ITERATIONS.

 TIME INCREMENT COMPLETED  1.000E-02,  FRACTION OF STEP COMPLETED  0.390    
 STEP TIME COMPLETED       0.390    ,  TOTAL TIME COMPLETED        0.390    


  INCREMENT    40 STARTS. ATTEMPT NUMBER  1, TIME INCREMENT  1.000E-02

  NUMBER OF EQUATIONS =        24     NUMBER OF FLOATING PT. OPERATIONS =  4.90E+03

     CHECK POINT   START OF SOLVER    

     CHECK POINT  END OF SOLVER       

       ELAPSED USER TIME (SEC)      =   0.0000    
       ELAPSED SYSTEM TIME (SEC)    =   0.0000    
       ELAPSED TOTAL CPU TIME (SEC) =   0.0000    
       ELAPSED WALLCLOCK TIME (SEC) =          0

               CONVERGENCE CHECKS FOR EQUILIBRIUM ITERATION     1


 AVERAGE FORCE                       345.       TIME AVG. FORCE        205.    
 LARGEST RESIDUAL FORCE             3.009E-36   AT NODE          3   DOF  2
 LARGEST INCREMENT OF DISP.         1.000E-03   AT NODE          2   DOF  1
 LARGEST CORRECTION TO DISP.       -4.006E-30   AT NODE          6   DOF  3
          THE FORCE     EQUILIBRIUM RESPONSE WAS LINEAR IN THIS INCREMENT

 ITERATION SUMMARY FOR THE INCREMENT:   1 TOTAL ITERATIONS, OF WHICH
   0 ARE SEVERE DISCONTINUITY ITERATIONS AND  1 ARE EQUILIBRIUM ITERATIONS.

 TIME INCREMENT COMPLETED  1.000E-02,  FRACTION OF STEP COMPLETED  0.400    
 STEP TIME COMPLETED       0.400    ,  TOTAL TIME COMPLETED        0.400    


  INCREMENT    41 STARTS. ATTEMPT NUMBER  1, TIME INCREMENT  1.000E-02

  NUMBER OF EQUATIONS =        24     NUMBER OF FLOATING PT. OPERATIONS =  4.90E+03

     CHECK POINT   START OF SOLVER    

     CHECK POINT  END OF SOLVER       

       ELAPSED USER TIME (SEC)      =   0.0000    
       ELAPSED SYSTEM TIME (SEC)    =   0.0000    
       ELAPSED TOTAL CPU TIME (SEC) =   0.0000    
       ELAPSED WALLCLOCK TIME (SEC) =          0

               CONVERGENCE CHECKS FOR EQUILIBRIUM ITERATION     1


 AVERAGE FORCE                       351.       TIME AVG. FORCE        208.    
 LARGEST RESIDUAL FORCE             4.514E-36   AT NODE          8   DOF  3
 LARGEST INCREMENT OF DISP.         1.000E-03   AT NODE          2   DOF  1
 LARGEST CORRECTION TO DISP.       -3.996E-30   AT NODE          5   DOF  3
          THE FORCE     EQUILIBRIUM RESPONSE WAS LINEAR IN THIS INCREMENT

 ITERATION SUMMARY FOR THE INCREMENT:   1 TOTAL ITERATIONS, OF WHICH
   0 ARE SEVERE DISCONTINUITY ITERATIONS AND  1 ARE EQUILIBRIUM ITERATIONS.

 TIME INCREMENT COMPLETED  1.000E-02,  FRACTION OF STEP COMPLETED  0.410    
 STEP TIME COMPLETED       0.410    ,  TOTAL TIME COMPLETED        0.410    


  INCREMENT    42 STARTS. ATTEMPT NUMBER  1, TIME INCREMENT  1.000E-02

  NUMBER OF EQUATIONS =        24     NUMBER OF FLOATING PT. OPERATIONS =  4.90E+03

     CHECK POINT   START OF SOLVER    

     CHECK POINT  END OF SOLVER       

       ELAPSED USER TIME (SEC)      =   0.0000    
       ELAPSED SYSTEM TIME (SEC)    =   0.0000    
       ELAPSED TOTAL CPU TIME (SEC) =   0.0000    
       ELAPSED WALLCLOCK TIME (SEC) =          0

               CONVERGENCE CHECKS FOR EQUILIBRIUM ITERATION     1


 AVERAGE FORCE                       356.       TIME AVG. FORCE        212.    
 LARGEST RESIDUAL FORCE            -6.019E-36   AT NODE          6   DOF  3
 LARGEST INCREMENT OF DISP.         1.000E-03   AT NODE          2   DOF  1
 LARGEST CORRECTION TO DISP.       -3.985E-30   AT NODE          3   DOF  2
          THE FORCE     EQUILIBRIUM RESPONSE WAS LINEAR IN THIS INCREMENT

 ITERATION SUMMARY FOR THE INCREMENT:   1 TOTAL ITERATIONS, OF WHICH
   0 ARE SEVERE DISCONTINUITY ITERATIONS AND  1 ARE EQUILIBRIUM ITERATIONS.

 TIME INCREMENT COMPLETED  1.000E-02,  FRACTION OF STEP COMPLETED  0.420    
 STEP TIME COMPLETED       0.420    ,  TOTAL TIME COMPLETED        0.420    


  INCREMENT    43 STARTS. ATTEMPT NUMBER  1, TIME INCREMENT  1.000E-02

  NUMBER OF EQUATIONS =        24     NUMBER OF FLOATING PT. OPERATIONS =  4.90E+03

     CHECK POINT   START OF SOLVER    

     CHECK POINT  END OF SOLVER       

       ELAPSED USER TIME (SEC)      =   0.0000    
       ELAPSED SYSTEM TIME (SEC)    =   0.0000    
       ELAPSED TOTAL CPU TIME (SEC) =   0.0000    
       ELAPSED WALLCLOCK TIME (SEC) =          0

               CONVERGENCE CHECKS FOR EQUILIBRIUM ITERATION     1


 AVERAGE FORCE                       362.       TIME AVG. FORCE        215.    
 LARGEST RESIDUAL FORCE            -1.053E-35   AT NODE          8   DOF  3
 LARGEST INCREMENT OF DISP.         1.000E-03   AT NODE          2   DOF  1
 LARGEST CORRECTION TO DISP.        3.975E-30   AT NODE          8   DOF  3
          THE FORCE     EQUILIBRIUM RESPONSE WAS LINEAR IN THIS INCREMENT

 ITERATION SUMMARY FOR THE INCREMENT:   1 TOTAL ITERATIONS, OF WHICH
   0 ARE SEVERE DISCONTINUITY ITERATIONS AND  1 ARE EQUILIBRIUM ITERATIONS.

 TIME INCREMENT COMPLETED  1.000E-02,  FRACTION OF STEP COMPLETED  0.430    
 STEP TIME COMPLETED       0.430    ,  TOTAL TIME COMPLETED        0.430    


  INCREMENT    44 STARTS. ATTEMPT NUMBER  1, TIME INCREMENT  1.000E-02

  NUMBER OF EQUATIONS =        24     NUMBER OF FLOATING PT. OPERATIONS =  4.90E+03

     CHECK POINT   START OF SOLVER    

     CHECK POINT  END OF SOLVER       

       ELAPSED USER TIME (SEC)      =   0.0000    
       ELAPSED SYSTEM TIME (SEC)    =   0.0000    
       ELAPSED TOTAL CPU TIME (SEC) =   0.0000    
       ELAPSED WALLCLOCK TIME (SEC) =          0

               CONVERGENCE CHECKS FOR EQUILIBRIUM ITERATION     1


 AVERAGE FORCE                       367.       TIME AVG. FORCE        219.    
 LARGEST RESIDUAL FORCE             6.019E-36   AT NODE          5   DOF  3
 LARGEST INCREMENT OF DISP.         1.000E-03   AT NODE          2   DOF  1
 LARGEST CORRECTION TO DISP.        3.965E-30   AT NODE          7   DOF  3
          THE FORCE     EQUILIBRIUM RESPONSE WAS LINEAR IN THIS INCREMENT

 ITERATION SUMMARY FOR THE INCREMENT:   1 TOTAL ITERATIONS, OF WHICH
   0 ARE SEVERE DISCONTINUITY ITERATIONS AND  1 ARE EQUILIBRIUM ITERATIONS.

 TIME INCREMENT COMPLETED  1.000E-02,  FRACTION OF STEP COMPLETED  0.440    
 STEP TIME COMPLETED       0.440    ,  TOTAL TIME COMPLETED        0.440    


  INCREMENT    45 STARTS. ATTEMPT NUMBER  1, TIME INCREMENT  1.000E-02

  NUMBER OF EQUATIONS =        24     NUMBER OF FLOATING PT. OPERATIONS =  4.90E+03

     CHECK POINT   START OF SOLVER    

     CHECK POINT  END OF SOLVER       

       ELAPSED USER TIME (SEC)      =   0.0000    
       ELAPSED SYSTEM TIME (SEC)    =   0.0000    
       ELAPSED TOTAL CPU TIME (SEC) =   0.0000    
       ELAPSED WALLCLOCK TIME (SEC) =          0

               CONVERGENCE CHECKS FOR EQUILIBRIUM ITERATION     1


 AVERAGE FORCE                       372.       TIME AVG. FORCE        222.    
 LARGEST RESIDUAL FORCE            -7.523E-36   AT NODE          8   DOF  3
 LARGEST INCREMENT OF DISP.         1.000E-03   AT NODE          2   DOF  1
 LARGEST CORRECTION TO DISP.       -3.954E-30   AT NODE          6   DOF  3
          THE FORCE     EQUILIBRIUM RESPONSE WAS LINEAR IN THIS INCREMENT

 ITERATION SUMMARY FOR THE INCREMENT:   1 TOTAL ITERATIONS, OF WHICH
   0 ARE SEVERE DISCONTINUITY ITERATIONS AND  1 ARE EQUILIBRIUM ITERATIONS.

 TIME INCREMENT COMPLETED  1.000E-02,  FRACTION OF STEP COMPLETED  0.450    
 STEP TIME COMPLETED       0.450    ,  TOTAL TIME COMPLETED        0.450    


  INCREMENT    46 STARTS. ATTEMPT NUMBER  1, TIME INCREMENT  1.000E-02

  NUMBER OF EQUATIONS =        24     NUMBER OF FLOATING PT. OPERATIONS =  4.90E+03

     CHECK POINT   START OF SOLVER    

     CHECK POINT  END OF SOLVER       

       ELAPSED USER TIME (SEC)      =   0.0000    
       ELAPSED SYSTEM TIME (SEC)    =   0.0000    
       ELAPSED TOTAL CPU TIME (SEC) =   0.0000    
       ELAPSED WALLCLOCK TIME (SEC) =          0

               CONVERGENCE CHECKS FOR EQUILIBRIUM ITERATION     1


 AVERAGE FORCE                       378.       TIME AVG. FORCE        226.    
 LARGEST RESIDUAL FORCE            -4.514E-36   AT NODE          3   DOF  2
 LARGEST INCREMENT OF DISP.         1.000E-03   AT NODE          2   DOF  1
 LARGEST CORRECTION TO DISP.       -3.944E-30   AT NODE          5   DOF  3
          THE FORCE     EQUILIBRIUM RESPONSE WAS LINEAR IN THIS INCREMENT

 ITERATION SUMMARY FOR THE INCREMENT:   1 TOTAL ITERATIONS, OF WHICH
   0 ARE SEVERE DISCONTINUITY ITERATIONS AND  1 ARE EQUILIBRIUM ITERATIONS.

 TIME INCREMENT COMPLETED  1.000E-02,  FRACTION OF STEP COMPLETED  0.460    
 STEP TIME COMPLETED       0.460    ,  TOTAL TIME COMPLETED        0.460    


  INCREMENT    47 STARTS. ATTEMPT NUMBER  1, TIME INCREMENT  1.000E-02

  NUMBER OF EQUATIONS =        24     NUMBER OF FLOATING PT. OPERATIONS =  4.90E+03

     CHECK POINT   START OF SOLVER    

     CHECK POINT  END OF SOLVER       

       ELAPSED USER TIME (SEC)      =   0.0000    
       ELAPSED SYSTEM TIME (SEC)    =   0.0000    
       ELAPSED TOTAL CPU TIME (SEC) =   0.0000    
       ELAPSED WALLCLOCK TIME (SEC) =          0

               CONVERGENCE CHECKS FOR EQUILIBRIUM ITERATION     1


 AVERAGE FORCE                       383.       TIME AVG. FORCE        229.    
 LARGEST RESIDUAL FORCE             1.204E-35   AT NODE          8   DOF  3
 LARGEST INCREMENT OF DISP.         1.000E-03   AT NODE          2   DOF  1
 LARGEST CORRECTION TO DISP.       -3.934E-30   AT NODE          6   DOF  3
          THE FORCE     EQUILIBRIUM RESPONSE WAS LINEAR IN THIS INCREMENT

 ITERATION SUMMARY FOR THE INCREMENT:   1 TOTAL ITERATIONS, OF WHICH
   0 ARE SEVERE DISCONTINUITY ITERATIONS AND  1 ARE EQUILIBRIUM ITERATIONS.

 TIME INCREMENT COMPLETED  1.000E-02,  FRACTION OF STEP COMPLETED  0.470    
 STEP TIME COMPLETED       0.470    ,  TOTAL TIME COMPLETED        0.470    


  INCREMENT    48 STARTS. ATTEMPT NUMBER  1, TIME INCREMENT  1.000E-02

  NUMBER OF EQUATIONS =        24     NUMBER OF FLOATING PT. OPERATIONS =  4.90E+03

     CHECK POINT   START OF SOLVER    

     CHECK POINT  END OF SOLVER       

       ELAPSED USER TIME (SEC)      =   0.0000    
       ELAPSED SYSTEM TIME (SEC)    =   0.0000    
       ELAPSED TOTAL CPU TIME (SEC) =   0.0000    
       ELAPSED WALLCLOCK TIME (SEC) =          0

               CONVERGENCE CHECKS FOR EQUILIBRIUM ITERATION     1


 AVERAGE FORCE                       388.       TIME AVG. FORCE        232.    
 LARGEST RESIDUAL FORCE            -6.019E-36   AT NODE          6   DOF  3
 LARGEST INCREMENT OF DISP.         1.000E-03   AT NODE          2   DOF  1
 LARGEST CORRECTION TO DISP.       -3.924E-30   AT NODE          5   DOF  3
          THE FORCE     EQUILIBRIUM RESPONSE WAS LINEAR IN THIS INCREMENT

 ITERATION SUMMARY FOR THE INCREMENT:   1 TOTAL ITERATIONS, OF WHICH
   0 ARE SEVERE DISCONTINUITY ITERATIONS AND  1 ARE EQUILIBRIUM ITERATIONS.

 TIME INCREMENT COMPLETED  1.000E-02,  FRACTION OF STEP COMPLETED  0.480    
 STEP TIME COMPLETED       0.480    ,  TOTAL TIME COMPLETED        0.480    


  INCREMENT    49 STARTS. ATTEMPT NUMBER  1, TIME INCREMENT  1.000E-02

  NUMBER OF EQUATIONS =        24     NUMBER OF FLOATING PT. OPERATIONS =  4.90E+03

     CHECK POINT   START OF SOLVER    

     CHECK POINT  END OF SOLVER       

       ELAPSED USER TIME (SEC)      =   0.0000    
       ELAPSED SYSTEM TIME (SEC)    =   0.0000    
       ELAPSED TOTAL CPU TIME (SEC) =   0.0000    
       ELAPSED WALLCLOCK TIME (SEC) =          0

               CONVERGENCE CHECKS FOR EQUILIBRIUM ITERATION     1


 AVERAGE FORCE                       394.       TIME AVG. FORCE        236.    
 LARGEST RESIDUAL FORCE            -6.019E-36   AT NODE          5   DOF  3
 LARGEST INCREMENT OF DISP.         1.000E-03   AT NODE          2   DOF  1
 LARGEST CORRECTION TO DISP.       -3.914E-30   AT NODE          6   DOF  3
          THE FORCE     EQUILIBRIUM RESPONSE WAS LINEAR IN THIS INCREMENT

 ITERATION SUMMARY FOR THE INCREMENT:   1 TOTAL ITERATIONS, OF WHICH
   0 ARE SEVERE DISCONTINUITY ITERATIONS AND  1 ARE EQUILIBRIUM ITERATIONS.

 TIME INCREMENT COMPLETED  1.000E-02,  FRACTION OF STEP COMPLETED  0.490    
 STEP TIME COMPLETED       0.490    ,  TOTAL TIME COMPLETED        0.490    


  INCREMENT    50 STARTS. ATTEMPT NUMBER  1, TIME INCREMENT  1.000E-02

  NUMBER OF EQUATIONS =        24     NUMBER OF FLOATING PT. OPERATIONS =  4.90E+03

     CHECK POINT   START OF SOLVER    

     CHECK POINT  END OF SOLVER       

       ELAPSED USER TIME (SEC)      =   0.0000    
       ELAPSED SYSTEM TIME (SEC)    =   0.0000    
       ELAPSED TOTAL CPU TIME (SEC) =   0.0000    
       ELAPSED WALLCLOCK TIME (SEC) =          0

               CONVERGENCE CHECKS FOR EQUILIBRIUM ITERATION     1


 AVERAGE FORCE                       399.       TIME AVG. FORCE        239.    
 LARGEST RESIDUAL FORCE             1.994E-30   AT NODE          5   DOF  3
 LARGEST INCREMENT OF DISP.         1.000E-03   AT NODE          2   DOF  1
 LARGEST CORRECTION TO DISP.       -6.939E-18   AT NODE          2   DOF  1
          THE FORCE     EQUILIBRIUM RESPONSE WAS LINEAR IN THIS INCREMENT

 ITERATION SUMMARY FOR THE INCREMENT:   1 TOTAL ITERATIONS, OF WHICH
   0 ARE SEVERE DISCONTINUITY ITERATIONS AND  1 ARE EQUILIBRIUM ITERATIONS.

 TIME INCREMENT COMPLETED  1.000E-02,  FRACTION OF STEP COMPLETED  0.500    
 STEP TIME COMPLETED       0.500    ,  TOTAL TIME COMPLETED        0.500    


  INCREMENT    51 STARTS. ATTEMPT NUMBER  1, TIME INCREMENT  1.000E-02

  NUMBER OF EQUATIONS =        24     NUMBER OF FLOATING PT. OPERATIONS =  4.90E+03

     CHECK POINT   START OF SOLVER    

     CHECK POINT  END OF SOLVER       

       ELAPSED USER TIME (SEC)      =   0.0000    
       ELAPSED SYSTEM TIME (SEC)    =   0.0000    
       ELAPSED TOTAL CPU TIME (SEC) =   0.0000    
       ELAPSED WALLCLOCK TIME (SEC) =          0

               CONVERGENCE CHECKS FOR EQUILIBRIUM ITERATION     1


 AVERAGE FORCE                       404.       TIME AVG. FORCE        242.    
 LARGEST RESIDUAL FORCE             1.357E-30   AT NODE          7   DOF  2
 LARGEST INCREMENT OF DISP.         1.000E-03   AT NODE          2   DOF  1
 LARGEST CORRECTION TO DISP.        6.939E-18   AT NODE          2   DOF  1
          THE FORCE     EQUILIBRIUM RESPONSE WAS LINEAR IN THIS INCREMENT

 ITERATION SUMMARY FOR THE INCREMENT:   1 TOTAL ITERATIONS, OF WHICH
   0 ARE SEVERE DISCONTINUITY ITERATIONS AND  1 ARE EQUILIBRIUM ITERATIONS.

 TIME INCREMENT COMPLETED  1.000E-02,  FRACTION OF STEP COMPLETED  0.510    
 STEP TIME COMPLETED       0.510    ,  TOTAL TIME COMPLETED        0.510    


  INCREMENT    52 STARTS. ATTEMPT NUMBER  1, TIME INCREMENT  1.000E-02

  NUMBER OF EQUATIONS =        24     NUMBER OF FLOATING PT. OPERATIONS =  4.90E+03

     CHECK POINT   START OF SOLVER    

     CHECK POINT  END OF SOLVER       

       ELAPSED USER TIME (SEC)      =   0.0000    
       ELAPSED SYSTEM TIME (SEC)    =   0.0000    
       ELAPSED TOTAL CPU TIME (SEC) =   0.0000    
       ELAPSED WALLCLOCK TIME (SEC) =          0

               CONVERGENCE CHECKS FOR EQUILIBRIUM ITERATION     1


 AVERAGE FORCE                       410.       TIME AVG. FORCE        245.    
 LARGEST RESIDUAL FORCE            -1.834E-32   AT NODE          8   DOF  2
 LARGEST INCREMENT OF DISP.         1.000E-03   AT NODE          2   DOF  1
 LARGEST CORRECTION TO DISP.       -3.884E-30   AT NODE          3   DOF  2
          THE FORCE     EQUILIBRIUM RESPONSE WAS LINEAR IN THIS INCREMENT

 ITERATION SUMMARY FOR THE INCREMENT:   1 TOTAL ITERATIONS, OF WHICH
   0 ARE SEVERE DISCONTINUITY ITERATIONS AND  1 ARE EQUILIBRIUM ITERATIONS.

 TIME INCREMENT COMPLETED  1.000E-02,  FRACTION OF STEP COMPLETED  0.520    
 STEP TIME COMPLETED       0.520    ,  TOTAL TIME COMPLETED        0.520    


  INCREMENT    53 STARTS. ATTEMPT NUMBER  1, TIME INCREMENT  1.000E-02

  NUMBER OF EQUATIONS =        24     NUMBER OF FLOATING PT. OPERATIONS =  4.90E+03

     CHECK POINT   START OF SOLVER    

     CHECK POINT  END OF SOLVER       

       ELAPSED USER TIME (SEC)      =   0.0000    
       ELAPSED SYSTEM TIME (SEC)    =   0.0000    
       ELAPSED TOTAL CPU TIME (SEC) =   0.0000    
       ELAPSED WALLCLOCK TIME (SEC) =          0

               CONVERGENCE CHECKS FOR EQUILIBRIUM ITERATION     1


 AVERAGE FORCE                       415.       TIME AVG. FORCE        249.    
 LARGEST RESIDUAL FORCE            -1.286E-32   AT NODE          6   DOF  3
 LARGEST INCREMENT OF DISP.         1.000E-03   AT NODE          2   DOF  1
 LARGEST CORRECTION TO DISP.        3.874E-30   AT NODE          7   DOF  3
          THE FORCE     EQUILIBRIUM RESPONSE WAS LINEAR IN THIS INCREMENT

 ITERATION SUMMARY FOR THE INCREMENT:   1 TOTAL ITERATIONS, OF WHICH
   0 ARE SEVERE DISCONTINUITY ITERATIONS AND  1 ARE EQUILIBRIUM ITERATIONS.

 TIME INCREMENT COMPLETED  1.000E-02,  FRACTION OF STEP COMPLETED  0.530    
 STEP TIME COMPLETED       0.530    ,  TOTAL TIME COMPLETED        0.530    


  INCREMENT    54 STARTS. ATTEMPT NUMBER  1, TIME INCREMENT  1.000E-02

  NUMBER OF EQUATIONS =        24     NUMBER OF FLOATING PT. OPERATIONS =  4.90E+03

     CHECK POINT   START OF SOLVER    

     CHECK POINT  END OF SOLVER       

       ELAPSED USER TIME (SEC)      =   0.0000    
       ELAPSED SYSTEM TIME (SEC)    =   0.0000    
       ELAPSED TOTAL CPU TIME (SEC) =   0.0000    
       ELAPSED WALLCLOCK TIME (SEC) =          0

               CONVERGENCE CHECKS FOR EQUILIBRIUM ITERATION     1


 AVERAGE FORCE                       420.       TIME AVG. FORCE        252.    
 LARGEST RESIDUAL FORCE             1.461E-33   AT NODE          8   DOF  2
 LARGEST INCREMENT OF DISP.         1.000E-03   AT NODE          2   DOF  1
 LARGEST CORRECTION TO DISP.       -3.864E-30   AT NODE          6   DOF  3
          THE FORCE     EQUILIBRIUM RESPONSE WAS LINEAR IN THIS INCREMENT

 ITERATION SUMMARY FOR THE INCREMENT:   1 TOTAL ITERATIONS, OF WHICH
   0 ARE SEVERE DISCONTINUITY ITERATIONS AND  1 ARE EQUILIBRIUM ITERATIONS.

 TIME INCREMENT COMPLETED  1.000E-02,  FRACTION OF STEP COMPLETED  0.540    
 STEP TIME COMPLETED       0.540    ,  TOTAL TIME COMPLETED        0.540    


  INCREMENT    55 STARTS. ATTEMPT NUMBER  1, TIME INCREMENT  1.000E-02

  NUMBER OF EQUATIONS =        24     NUMBER OF FLOATING PT. OPERATIONS =  4.90E+03

     CHECK POINT   START OF SOLVER    

     CHECK POINT  END OF SOLVER       

       ELAPSED USER TIME (SEC)      =   0.0000    
       ELAPSED SYSTEM TIME (SEC)    =   0.0000    
       ELAPSED TOTAL CPU TIME (SEC) =   0.0000    
       ELAPSED WALLCLOCK TIME (SEC) =          0

               CONVERGENCE CHECKS FOR EQUILIBRIUM ITERATION     1


 AVERAGE FORCE                       426.       TIME AVG. FORCE        255.    
 LARGEST RESIDUAL FORCE             3.069E-34   AT NODE          7   DOF  2
 LARGEST INCREMENT OF DISP.         1.000E-03   AT NODE          2   DOF  1
 LARGEST CORRECTION TO DISP.       -3.854E-30   AT NODE          5   DOF  3
          THE FORCE     EQUILIBRIUM RESPONSE WAS LINEAR IN THIS INCREMENT

 ITERATION SUMMARY FOR THE INCREMENT:   1 TOTAL ITERATIONS, OF WHICH
   0 ARE SEVERE DISCONTINUITY ITERATIONS AND  1 ARE EQUILIBRIUM ITERATIONS.

 TIME INCREMENT COMPLETED  1.000E-02,  FRACTION OF STEP COMPLETED  0.550    
 STEP TIME COMPLETED       0.550    ,  TOTAL TIME COMPLETED        0.550    


  INCREMENT    56 STARTS. ATTEMPT NUMBER  1, TIME INCREMENT  1.000E-02

  NUMBER OF EQUATIONS =        24     NUMBER OF FLOATING PT. OPERATIONS =  4.90E+03

     CHECK POINT   START OF SOLVER    

     CHECK POINT  END OF SOLVER       

       ELAPSED USER TIME (SEC)      =   0.0000    
       ELAPSED SYSTEM TIME (SEC)    =   0.0000    
       ELAPSED TOTAL CPU TIME (SEC) =   0.0000    
       ELAPSED WALLCLOCK TIME (SEC) =          0

               CONVERGENCE CHECKS FOR EQUILIBRIUM ITERATION     1


 AVERAGE FORCE                       431.       TIME AVG. FORCE        258.    
 LARGEST RESIDUAL FORCE             8.576E-35   AT NODE          6   DOF  3
 LARGEST INCREMENT OF DISP.         1.000E-03   AT NODE          2   DOF  1
 LARGEST CORRECTION TO DISP.        3.844E-30   AT NODE          7   DOF  2
          THE FORCE     EQUILIBRIUM RESPONSE WAS LINEAR IN THIS INCREMENT

 ITERATION SUMMARY FOR THE INCREMENT:   1 TOTAL ITERATIONS, OF WHICH
   0 ARE SEVERE DISCONTINUITY ITERATIONS AND  1 ARE EQUILIBRIUM ITERATIONS.

 TIME INCREMENT COMPLETED  1.000E-02,  FRACTION OF STEP COMPLETED  0.560    
 STEP TIME COMPLETED       0.560    ,  TOTAL TIME COMPLETED        0.560    


  INCREMENT    57 STARTS. ATTEMPT NUMBER  1, TIME INCREMENT  1.000E-02

  NUMBER OF EQUATIONS =        24     NUMBER OF FLOATING PT. OPERATIONS =  4.90E+03

     CHECK POINT   START OF SOLVER    

     CHECK POINT  END OF SOLVER       

       ELAPSED USER TIME (SEC)      =   0.0000    
       ELAPSED SYSTEM TIME (SEC)    =   0.0000    
       ELAPSED TOTAL CPU TIME (SEC) =   0.0000    
       ELAPSED WALLCLOCK TIME (SEC) =          0

               CONVERGENCE CHECKS FOR EQUILIBRIUM ITERATION     1


 AVERAGE FORCE                       436.       TIME AVG. FORCE        261.    
 LARGEST RESIDUAL FORCE             1.204E-35   AT NODE          5   DOF  3
 LARGEST INCREMENT OF DISP.         1.000E-03   AT NODE          2   DOF  1
 LARGEST CORRECTION TO DISP.        3.834E-30   AT NODE          8   DOF  2
          THE FORCE     EQUILIBRIUM RESPONSE WAS LINEAR IN THIS INCREMENT

 ITERATION SUMMARY FOR THE INCREMENT:   1 TOTAL ITERATIONS, OF WHICH
   0 ARE SEVERE DISCONTINUITY ITERATIONS AND  1 ARE EQUILIBRIUM ITERATIONS.

 TIME INCREMENT COMPLETED  1.000E-02,  FRACTION OF STEP COMPLETED  0.570    
 STEP TIME COMPLETED       0.570    ,  TOTAL TIME COMPLETED        0.570    


  INCREMENT    58 STARTS. ATTEMPT NUMBER  1, TIME INCREMENT  1.000E-02

  NUMBER OF EQUATIONS =        24     NUMBER OF FLOATING PT. OPERATIONS =  4.90E+03

     CHECK POINT   START OF SOLVER    

     CHECK POINT  END OF SOLVER       

       ELAPSED USER TIME (SEC)      =   0.0000    
       ELAPSED SYSTEM TIME (SEC)    =   0.0000    
       ELAPSED TOTAL CPU TIME (SEC) =   0.0000    
       ELAPSED WALLCLOCK TIME (SEC) =          0

               CONVERGENCE CHECKS FOR EQUILIBRIUM ITERATION     1


 AVERAGE FORCE                       441.       TIME AVG. FORCE        264.    
 LARGEST RESIDUAL FORCE             6.019E-36   AT NODE          3   DOF  2
 LARGEST INCREMENT OF DISP.         1.000E-03   AT NODE          2   DOF  1
 LARGEST CORRECTION TO DISP.       -3.825E-30   AT NODE          6   DOF  3
          THE FORCE     EQUILIBRIUM RESPONSE WAS LINEAR IN THIS INCREMENT

 ITERATION SUMMARY FOR THE INCREMENT:   1 TOTAL ITERATIONS, OF WHICH
   0 ARE SEVERE DISCONTINUITY ITERATIONS AND  1 ARE EQUILIBRIUM ITERATIONS.

 TIME INCREMENT COMPLETED  1.000E-02,  FRACTION OF STEP COMPLETED  0.580    
 STEP TIME COMPLETED       0.580    ,  TOTAL TIME COMPLETED        0.580    


  INCREMENT    59 STARTS. ATTEMPT NUMBER  1, TIME INCREMENT  1.000E-02

  NUMBER OF EQUATIONS =        24     NUMBER OF FLOATING PT. OPERATIONS =  4.90E+03

     CHECK POINT   START OF SOLVER    

     CHECK POINT  END OF SOLVER       

       ELAPSED USER TIME (SEC)      =   0.0000    
       ELAPSED SYSTEM TIME (SEC)    =   0.0000    
       ELAPSED TOTAL CPU TIME (SEC) =   0.0000    
       ELAPSED WALLCLOCK TIME (SEC) =          0

               CONVERGENCE CHECKS FOR EQUILIBRIUM ITERATION     1


 AVERAGE FORCE                       447.       TIME AVG. FORCE        267.    
 LARGEST RESIDUAL FORCE            -6.019E-36   AT NODE          8   DOF  2
 LARGEST INCREMENT OF DISP.         1.000E-03   AT NODE          2   DOF  1
 LARGEST CORRECTION TO DISP.        3.815E-30   AT NODE          8   DOF  2
          THE FORCE     EQUILIBRIUM RESPONSE WAS LINEAR IN THIS INCREMENT

 ITERATION SUMMARY FOR THE INCREMENT:   1 TOTAL ITERATIONS, OF WHICH
   0 ARE SEVERE DISCONTINUITY ITERATIONS AND  1 ARE EQUILIBRIUM ITERATIONS.

 TIME INCREMENT COMPLETED  1.000E-02,  FRACTION OF STEP COMPLETED  0.590    
 STEP TIME COMPLETED       0.590    ,  TOTAL TIME COMPLETED        0.590    


  INCREMENT    60 STARTS. ATTEMPT NUMBER  1, TIME INCREMENT  1.000E-02

  NUMBER OF EQUATIONS =        24     NUMBER OF FLOATING PT. OPERATIONS =  4.90E+03

     CHECK POINT   START OF SOLVER    

     CHECK POINT  END OF SOLVER       

       ELAPSED USER TIME (SEC)      =   0.0000    
       ELAPSED SYSTEM TIME (SEC)    =   0.0000    
       ELAPSED TOTAL CPU TIME (SEC) =   0.0000    
       ELAPSED WALLCLOCK TIME (SEC) =          0

               CONVERGENCE CHECKS FOR EQUILIBRIUM ITERATION     1


 AVERAGE FORCE                       452.       TIME AVG. FORCE        270.    
 LARGEST RESIDUAL FORCE             4.514E-36   AT NODE          7   DOF  2
 LARGEST INCREMENT OF DISP.         1.000E-03   AT NODE          2   DOF  1
 LARGEST CORRECTION TO DISP.        3.805E-30   AT NODE          7   DOF  2
          THE FORCE     EQUILIBRIUM RESPONSE WAS LINEAR IN THIS INCREMENT

 ITERATION SUMMARY FOR THE INCREMENT:   1 TOTAL ITERATIONS, OF WHICH
   0 ARE SEVERE DISCONTINUITY ITERATIONS AND  1 ARE EQUILIBRIUM ITERATIONS.

 TIME INCREMENT COMPLETED  1.000E-02,  FRACTION OF STEP COMPLETED  0.600    
 STEP TIME COMPLETED       0.600    ,  TOTAL TIME COMPLETED        0.600    


  INCREMENT    61 STARTS. ATTEMPT NUMBER  1, TIME INCREMENT  1.000E-02

  NUMBER OF EQUATIONS =        24     NUMBER OF FLOATING PT. OPERATIONS =  4.90E+03

     CHECK POINT   START OF SOLVER    

     CHECK POINT  END OF SOLVER       

       ELAPSED USER TIME (SEC)      =   0.0000    
       ELAPSED SYSTEM TIME (SEC)    =   0.0000    
       ELAPSED TOTAL CPU TIME (SEC) =   0.0000    
       ELAPSED WALLCLOCK TIME (SEC) =          0

               CONVERGENCE CHECKS FOR EQUILIBRIUM ITERATION     1


 AVERAGE FORCE                       457.       TIME AVG. FORCE        273.    
 LARGEST RESIDUAL FORCE            -1.505E-36   AT NODE          3   DOF  2
 LARGEST INCREMENT OF DISP.         1.000E-03   AT NODE          2   DOF  1
 LARGEST CORRECTION TO DISP.        3.795E-30   AT NODE          8   DOF  2
          THE FORCE     EQUILIBRIUM RESPONSE WAS LINEAR IN THIS INCREMENT

 ITERATION SUMMARY FOR THE INCREMENT:   1 TOTAL ITERATIONS, OF WHICH
   0 ARE SEVERE DISCONTINUITY ITERATIONS AND  1 ARE EQUILIBRIUM ITERATIONS.

 TIME INCREMENT COMPLETED  1.000E-02,  FRACTION OF STEP COMPLETED  0.610    
 STEP TIME COMPLETED       0.610    ,  TOTAL TIME COMPLETED        0.610    


  INCREMENT    62 STARTS. ATTEMPT NUMBER  1, TIME INCREMENT  1.000E-02

  NUMBER OF EQUATIONS =        24     NUMBER OF FLOATING PT. OPERATIONS =  4.90E+03

     CHECK POINT   START OF SOLVER    

     CHECK POINT  END OF SOLVER       

       ELAPSED USER TIME (SEC)      =   0.0000    
       ELAPSED SYSTEM TIME (SEC)    =  0.10000    
       ELAPSED TOTAL CPU TIME (SEC) =  0.10000    
       ELAPSED WALLCLOCK TIME (SEC) =          0

               CONVERGENCE CHECKS FOR EQUILIBRIUM ITERATION     1


 AVERAGE FORCE                       463.       TIME AVG. FORCE        277.    
 LARGEST RESIDUAL FORCE            -9.028E-36   AT NODE          8   DOF  3
 LARGEST INCREMENT OF DISP.         1.000E-03   AT NODE          2   DOF  1
 LARGEST CORRECTION TO DISP.       -3.786E-30   AT NODE          6   DOF  3
          THE FORCE     EQUILIBRIUM RESPONSE WAS LINEAR IN THIS INCREMENT

 ITERATION SUMMARY FOR THE INCREMENT:   1 TOTAL ITERATIONS, OF WHICH
   0 ARE SEVERE DISCONTINUITY ITERATIONS AND  1 ARE EQUILIBRIUM ITERATIONS.

 TIME INCREMENT COMPLETED  1.000E-02,  FRACTION OF STEP COMPLETED  0.620    
 STEP TIME COMPLETED       0.620    ,  TOTAL TIME COMPLETED        0.620    


  INCREMENT    63 STARTS. ATTEMPT NUMBER  1, TIME INCREMENT  1.000E-02

  NUMBER OF EQUATIONS =        24     NUMBER OF FLOATING PT. OPERATIONS =  4.90E+03

     CHECK POINT   START OF SOLVER    

     CHECK POINT  END OF SOLVER       

       ELAPSED USER TIME (SEC)      =   0.0000    
       ELAPSED SYSTEM TIME (SEC)    =   0.0000    
       ELAPSED TOTAL CPU TIME (SEC) =   0.0000    
       ELAPSED WALLCLOCK TIME (SEC) =          0

               CONVERGENCE CHECKS FOR EQUILIBRIUM ITERATION     1


 AVERAGE FORCE                       468.       TIME AVG. FORCE        280.    
 LARGEST RESIDUAL FORCE            -1.191E-30   AT NODE          7   DOF  2
 LARGEST INCREMENT OF DISP.         1.000E-03   AT NODE          2   DOF  1
 LARGEST CORRECTION TO DISP.        6.939E-18   AT NODE          2   DOF  1
          THE FORCE     EQUILIBRIUM RESPONSE WAS LINEAR IN THIS INCREMENT

 ITERATION SUMMARY FOR THE INCREMENT:   1 TOTAL ITERATIONS, OF WHICH
   0 ARE SEVERE DISCONTINUITY ITERATIONS AND  1 ARE EQUILIBRIUM ITERATIONS.

 TIME INCREMENT COMPLETED  1.000E-02,  FRACTION OF STEP COMPLETED  0.630    
 STEP TIME COMPLETED       0.630    ,  TOTAL TIME COMPLETED        0.630    


  INCREMENT    64 STARTS. ATTEMPT NUMBER  1, TIME INCREMENT  1.000E-02

  NUMBER OF EQUATIONS =        24     NUMBER OF FLOATING PT. OPERATIONS =  4.90E+03

     CHECK POINT   START OF SOLVER    

     CHECK POINT  END OF SOLVER       

       ELAPSED USER TIME (SEC)      =   0.0000    
       ELAPSED SYSTEM TIME (SEC)    =   0.0000    
       ELAPSED TOTAL CPU TIME (SEC) =   0.0000    
       ELAPSED WALLCLOCK TIME (SEC) =          0

               CONVERGENCE CHECKS FOR EQUILIBRIUM ITERATION     1


 AVERAGE FORCE                       473.       TIME AVG. FORCE        283.    
 LARGEST RESIDUAL FORCE             1.685E-30   AT NODE          3   DOF  2
 LARGEST INCREMENT OF DISP.         1.000E-03   AT NODE          2   DOF  1
 LARGEST CORRECTION TO DISP.       -6.939E-18   AT NODE          2   DOF  1
          THE FORCE     EQUILIBRIUM RESPONSE WAS LINEAR IN THIS INCREMENT

 ITERATION SUMMARY FOR THE INCREMENT:   1 TOTAL ITERATIONS, OF WHICH
   0 ARE SEVERE DISCONTINUITY ITERATIONS AND  1 ARE EQUILIBRIUM ITERATIONS.

 TIME INCREMENT COMPLETED  1.000E-02,  FRACTION OF STEP COMPLETED  0.640    
 STEP TIME COMPLETED       0.640    ,  TOTAL TIME COMPLETED        0.640    


[...]
       ELAPSED SYSTEM TIME (SEC)    =   0.0000    
       ELAPSED TOTAL CPU TIME (SEC) =   0.0000    
       ELAPSED WALLCLOCK TIME (SEC) =          0

               CONVERGENCE CHECKS FOR EQUILIBRIUM ITERATION     1


 AVERAGE FORCE                       583.       TIME AVG. FORCE        344.    
 LARGEST RESIDUAL FORCE            -3.009E-36   AT NODE          5   DOF  3
 LARGEST INCREMENT OF DISP.         1.000E-03   AT NODE          2   DOF  1
 LARGEST CORRECTION TO DISP.       -3.573E-30   AT NODE          6   DOF  3
          THE FORCE     EQUILIBRIUM RESPONSE WAS LINEAR IN THIS INCREMENT

 ITERATION SUMMARY FOR THE INCREMENT:   1 TOTAL ITERATIONS, OF WHICH
   0 ARE SEVERE DISCONTINUITY ITERATIONS AND  1 ARE EQUILIBRIUM ITERATIONS.

 TIME INCREMENT COMPLETED  1.000E-02,  FRACTION OF STEP COMPLETED  0.850    
 STEP TIME COMPLETED       0.850    ,  TOTAL TIME COMPLETED        0.850    


  INCREMENT    86 STARTS. ATTEMPT NUMBER  1, TIME INCREMENT  1.000E-02

  NUMBER OF EQUATIONS =        24     NUMBER OF FLOATING PT. OPERATIONS =  4.90E+03

     CHECK POINT   START OF SOLVER    

     CHECK POINT  END OF SOLVER       

       ELAPSED USER TIME (SEC)      =   0.0000    
       ELAPSED SYSTEM TIME (SEC)    =   0.0000    
       ELAPSED TOTAL CPU TIME (SEC) =   0.0000    
       ELAPSED WALLCLOCK TIME (SEC) =          0

               CONVERGENCE CHECKS FOR EQUILIBRIUM ITERATION     1


 AVERAGE FORCE                       588.       TIME AVG. FORCE        347.    
 LARGEST RESIDUAL FORCE             7.523E-36   AT NODE          8   DOF  3
 LARGEST INCREMENT OF DISP.         1.000E-03   AT NODE          2   DOF  1
 LARGEST CORRECTION TO DISP.       -3.564E-30   AT NODE          5   DOF  3
          THE FORCE     EQUILIBRIUM RESPONSE WAS LINEAR IN THIS INCREMENT

 ITERATION SUMMARY FOR THE INCREMENT:   1 TOTAL ITERATIONS, OF WHICH
   0 ARE SEVERE DISCONTINUITY ITERATIONS AND  1 ARE EQUILIBRIUM ITERATIONS.

 TIME INCREMENT COMPLETED  1.000E-02,  FRACTION OF STEP COMPLETED  0.860    
 STEP TIME COMPLETED       0.860    ,  TOTAL TIME COMPLETED        0.860    


  INCREMENT    87 STARTS. ATTEMPT NUMBER  1, TIME INCREMENT  1.000E-02

  NUMBER OF EQUATIONS =        24     NUMBER OF FLOATING PT. OPERATIONS =  4.90E+03

     CHECK POINT   START OF SOLVER    

     CHECK POINT  END OF SOLVER       

       ELAPSED USER TIME (SEC)      =   0.0000    
       ELAPSED SYSTEM TIME (SEC)    =   0.0000    
       ELAPSED TOTAL CPU TIME (SEC) =   0.0000    
       ELAPSED WALLCLOCK TIME (SEC) =          0

               CONVERGENCE CHECKS FOR EQUILIBRIUM ITERATION     1


 AVERAGE FORCE                       593.       TIME AVG. FORCE        350.    
 LARGEST RESIDUAL FORCE            -3.009E-36   AT NODE          7   DOF  2
 LARGEST INCREMENT OF DISP.         1.000E-03   AT NODE          2   DOF  1
 LARGEST CORRECTION TO DISP.       -3.555E-30   AT NODE          6   DOF  3
          THE FORCE     EQUILIBRIUM RESPONSE WAS LINEAR IN THIS INCREMENT

 ITERATION SUMMARY FOR THE INCREMENT:   1 TOTAL ITERATIONS, OF WHICH
   0 ARE SEVERE DISCONTINUITY ITERATIONS AND  1 ARE EQUILIBRIUM ITERATIONS.

 TIME INCREMENT COMPLETED  1.000E-02,  FRACTION OF STEP COMPLETED  0.870    
 STEP TIME COMPLETED       0.870    ,  TOTAL TIME COMPLETED        0.870    


  INCREMENT    88 STARTS. ATTEMPT NUMBER  1, TIME INCREMENT  1.000E-02

  NUMBER OF EQUATIONS =        24     NUMBER OF FLOATING PT. OPERATIONS =  4.90E+03

     CHECK POINT   START OF SOLVER    

     CHECK POINT  END OF SOLVER       

       ELAPSED USER TIME (SEC)      =   0.0000    
       ELAPSED SYSTEM TIME (SEC)    =   0.0000    
       ELAPSED TOTAL CPU TIME (SEC) =   0.0000    
       ELAPSED WALLCLOCK TIME (SEC) =          0

               CONVERGENCE CHECKS FOR EQUILIBRIUM ITERATION     1


 AVERAGE FORCE                       598.       TIME AVG. FORCE        352.    
 LARGEST RESIDUAL FORCE            -4.514E-36   AT NODE          7   DOF  2
 LARGEST INCREMENT OF DISP.         1.000E-03   AT NODE          2   DOF  1
 LARGEST CORRECTION TO DISP.       -3.547E-30   AT NODE          5   DOF  3
          THE FORCE     EQUILIBRIUM RESPONSE WAS LINEAR IN THIS INCREMENT

 ITERATION SUMMARY FOR THE INCREMENT:   1 TOTAL ITERATIONS, OF WHICH
   0 ARE SEVERE DISCONTINUITY ITERATIONS AND  1 ARE EQUILIBRIUM ITERATIONS.

 TIME INCREMENT COMPLETED  1.000E-02,  FRACTION OF STEP COMPLETED  0.880    
 STEP TIME COMPLETED       0.880    ,  TOTAL TIME COMPLETED        0.880    


  INCREMENT    89 STARTS. ATTEMPT NUMBER  1, TIME INCREMENT  1.000E-02

  NUMBER OF EQUATIONS =        24     NUMBER OF FLOATING PT. OPERATIONS =  4.90E+03

     CHECK POINT   START OF SOLVER    

     CHECK POINT  END OF SOLVER       

       ELAPSED USER TIME (SEC)      =   0.0000    
       ELAPSED SYSTEM TIME (SEC)    =   0.0000    
       ELAPSED TOTAL CPU TIME (SEC) =   0.0000    
       ELAPSED WALLCLOCK TIME (SEC) =          0

               CONVERGENCE CHECKS FOR EQUILIBRIUM ITERATION     1


 AVERAGE FORCE                       603.       TIME AVG. FORCE        355.    
 LARGEST RESIDUAL FORCE            -4.514E-36   AT NODE          5   DOF  3
 LARGEST INCREMENT OF DISP.         1.000E-03   AT NODE          2   DOF  1
 LARGEST CORRECTION TO DISP.       -3.538E-30   AT NODE          6   DOF  3
          THE FORCE     EQUILIBRIUM RESPONSE WAS LINEAR IN THIS INCREMENT

 ITERATION SUMMARY FOR THE INCREMENT:   1 TOTAL ITERATIONS, OF WHICH
   0 ARE SEVERE DISCONTINUITY ITERATIONS AND  1 ARE EQUILIBRIUM ITERATIONS.

 TIME INCREMENT COMPLETED  1.000E-02,  FRACTION OF STEP COMPLETED  0.890    
 STEP TIME COMPLETED       0.890    ,  TOTAL TIME COMPLETED        0.890    


  INCREMENT    90 STARTS. ATTEMPT NUMBER  1, TIME INCREMENT  1.000E-02

  NUMBER OF EQUATIONS =        24     NUMBER OF FLOATING PT. OPERATIONS =  4.90E+03

     CHECK POINT   START OF SOLVER    

     CHECK POINT  END OF SOLVER       

       ELAPSED USER TIME (SEC)      =   0.0000    
       ELAPSED SYSTEM TIME (SEC)    =   0.0000    
       ELAPSED TOTAL CPU TIME (SEC) =   0.0000    
       ELAPSED WALLCLOCK TIME (SEC) =          0

               CONVERGENCE CHECKS FOR EQUILIBRIUM ITERATION     1


 AVERAGE FORCE                       608.       TIME AVG. FORCE        358.    
 LARGEST RESIDUAL FORCE            -4.514E-36   AT NODE          5   DOF  3
 LARGEST INCREMENT OF DISP.         1.000E-03   AT NODE          2   DOF  1
 LARGEST CORRECTION TO DISP.        3.529E-30   AT NODE          7   DOF  2
          THE FORCE     EQUILIBRIUM RESPONSE WAS LINEAR IN THIS INCREMENT

 ITERATION SUMMARY FOR THE INCREMENT:   1 TOTAL ITERATIONS, OF WHICH
   0 ARE SEVERE DISCONTINUITY ITERATIONS AND  1 ARE EQUILIBRIUM ITERATIONS.

 TIME INCREMENT COMPLETED  1.000E-02,  FRACTION OF STEP COMPLETED  0.900    
 STEP TIME COMPLETED       0.900    ,  TOTAL TIME COMPLETED        0.900    


  INCREMENT    91 STARTS. ATTEMPT NUMBER  1, TIME INCREMENT  1.000E-02

  NUMBER OF EQUATIONS =        24     NUMBER OF FLOATING PT. OPERATIONS =  4.90E+03

     CHECK POINT   START OF SOLVER    

     CHECK POINT  END OF SOLVER       

       ELAPSED USER TIME (SEC)      =   0.0000    
       ELAPSED SYSTEM TIME (SEC)    =   0.0000    
       ELAPSED TOTAL CPU TIME (SEC) =   0.0000    
       ELAPSED WALLCLOCK TIME (SEC) =          0

               CONVERGENCE CHECKS FOR EQUILIBRIUM ITERATION     1


 AVERAGE FORCE                       613.       TIME AVG. FORCE        361.    
 LARGEST RESIDUAL FORCE             3.009E-36   AT NODE          3   DOF  2
 LARGEST INCREMENT OF DISP.         1.000E-03   AT NODE          2   DOF  1
 LARGEST CORRECTION TO DISP.       -3.520E-30   AT NODE          5   DOF  3
          THE FORCE     EQUILIBRIUM RESPONSE WAS LINEAR IN THIS INCREMENT

 ITERATION SUMMARY FOR THE INCREMENT:   1 TOTAL ITERATIONS, OF WHICH
   0 ARE SEVERE DISCONTINUITY ITERATIONS AND  1 ARE EQUILIBRIUM ITERATIONS.

 TIME INCREMENT COMPLETED  1.000E-02,  FRACTION OF STEP COMPLETED  0.910    
 STEP TIME COMPLETED       0.910    ,  TOTAL TIME COMPLETED        0.910    


  INCREMENT    92 STARTS. ATTEMPT NUMBER  1, TIME INCREMENT  1.000E-02

  NUMBER OF EQUATIONS =        24     NUMBER OF FLOATING PT. OPERATIONS =  4.90E+03

     CHECK POINT   START OF SOLVER    

     CHECK POINT  END OF SOLVER       

       ELAPSED USER TIME (SEC)      =   0.0000    
       ELAPSED SYSTEM TIME (SEC)    =   0.0000    
       ELAPSED TOTAL CPU TIME (SEC) =   0.0000    
       ELAPSED WALLCLOCK TIME (SEC) =          0

               CONVERGENCE CHECKS FOR EQUILIBRIUM ITERATION     1


 AVERAGE FORCE                       619.       TIME AVG. FORCE        364.    
 LARGEST RESIDUAL FORCE            -3.009E-36   AT NODE          4   DOF  2
 LARGEST INCREMENT OF DISP.         1.000E-03   AT NODE          2   DOF  1
 LARGEST CORRECTION TO DISP.        3.512E-30   AT NODE          8   DOF  2
          THE FORCE     EQUILIBRIUM RESPONSE WAS LINEAR IN THIS INCREMENT

 ITERATION SUMMARY FOR THE INCREMENT:   1 TOTAL ITERATIONS, OF WHICH
   0 ARE SEVERE DISCONTINUITY ITERATIONS AND  1 ARE EQUILIBRIUM ITERATIONS.

 TIME INCREMENT COMPLETED  1.000E-02,  FRACTION OF STEP COMPLETED  0.920    
 STEP TIME COMPLETED       0.920    ,  TOTAL TIME COMPLETED        0.920    


  INCREMENT    93 STARTS. ATTEMPT NUMBER  1, TIME INCREMENT  1.000E-02

  NUMBER OF EQUATIONS =        24     NUMBER OF FLOATING PT. OPERATIONS =  4.90E+03

     CHECK POINT   START OF SOLVER    

     CHECK POINT  END OF SOLVER       

       ELAPSED USER TIME (SEC)      =   0.0000    
       ELAPSED SYSTEM TIME (SEC)    =   0.0000    
       ELAPSED TOTAL CPU TIME (SEC) =   0.0000    
       ELAPSED WALLCLOCK TIME (SEC) =          0

               CONVERGENCE CHECKS FOR EQUILIBRIUM ITERATION     1


 AVERAGE FORCE                       624.       TIME AVG. FORCE        366.    
 LARGEST RESIDUAL FORCE            -7.523E-36   AT NODE          5   DOF  3
 LARGEST INCREMENT OF DISP.         1.000E-03   AT NODE          2   DOF  1
 LARGEST CORRECTION TO DISP.        3.503E-30   AT NODE          8   DOF  3
          THE FORCE     EQUILIBRIUM RESPONSE WAS LINEAR IN THIS INCREMENT

 ITERATION SUMMARY FOR THE INCREMENT:   1 TOTAL ITERATIONS, OF WHICH
   0 ARE SEVERE DISCONTINUITY ITERATIONS AND  1 ARE EQUILIBRIUM ITERATIONS.

 TIME INCREMENT COMPLETED  1.000E-02,  FRACTION OF STEP COMPLETED  0.930    
 STEP TIME COMPLETED       0.930    ,  TOTAL TIME COMPLETED        0.930    


  INCREMENT    94 STARTS. ATTEMPT NUMBER  1, TIME INCREMENT  1.000E-02

  NUMBER OF EQUATIONS =        24     NUMBER OF FLOATING PT. OPERATIONS =  4.90E+03

     CHECK POINT   START OF SOLVER    

     CHECK POINT  END OF SOLVER       

       ELAPSED USER TIME (SEC)      =   0.0000    
       ELAPSED SYSTEM TIME (SEC)    =   0.0000    
       ELAPSED TOTAL CPU TIME (SEC) =   0.0000    
       ELAPSED WALLCLOCK TIME (SEC) =          0

               CONVERGENCE CHECKS FOR EQUILIBRIUM ITERATION     1


 AVERAGE FORCE                       629.       TIME AVG. FORCE        369.    
 LARGEST RESIDUAL FORCE            -4.514E-36   AT NODE          7   DOF  3
 LARGEST INCREMENT OF DISP.         1.000E-03   AT NODE          2   DOF  1
 LARGEST CORRECTION TO DISP.        3.494E-30   AT NODE          7   DOF  3
          THE FORCE     EQUILIBRIUM RESPONSE WAS LINEAR IN THIS INCREMENT

 ITERATION SUMMARY FOR THE INCREMENT:   1 TOTAL ITERATIONS, OF WHICH
   0 ARE SEVERE DISCONTINUITY ITERATIONS AND  1 ARE EQUILIBRIUM ITERATIONS.

 TIME INCREMENT COMPLETED  1.000E-02,  FRACTION OF STEP COMPLETED  0.940    
 STEP TIME COMPLETED       0.940    ,  TOTAL TIME COMPLETED        0.940    


  INCREMENT    95 STARTS. ATTEMPT NUMBER  1, TIME INCREMENT  1.000E-02

  NUMBER OF EQUATIONS =        24     NUMBER OF FLOATING PT. OPERATIONS =  4.90E+03

     CHECK POINT   START OF SOLVER    

     CHECK POINT  END OF SOLVER       

       ELAPSED USER TIME (SEC)      =   0.0000    
       ELAPSED SYSTEM TIME (SEC)    =   0.0000    
       ELAPSED TOTAL CPU TIME (SEC) =   0.0000    
       ELAPSED WALLCLOCK TIME (SEC) =          0

               CONVERGENCE CHECKS FOR EQUILIBRIUM ITERATION     1


 AVERAGE FORCE                       634.       TIME AVG. FORCE        372.    
 LARGEST RESIDUAL FORCE            -1.505E-36   AT NODE          3   DOF  2
 LARGEST INCREMENT OF DISP.         1.000E-03   AT NODE          2   DOF  1
 LARGEST CORRECTION TO DISP.        3.486E-30   AT NODE          7   DOF  2
          THE FORCE     EQUILIBRIUM RESPONSE WAS LINEAR IN THIS INCREMENT

 ITERATION SUMMARY FOR THE INCREMENT:   1 TOTAL ITERATIONS, OF WHICH
   0 ARE SEVERE DISCONTINUITY ITERATIONS AND  1 ARE EQUILIBRIUM ITERATIONS.

 TIME INCREMENT COMPLETED  1.000E-02,  FRACTION OF STEP COMPLETED  0.950    
 STEP TIME COMPLETED       0.950    ,  TOTAL TIME COMPLETED        0.950    


  INCREMENT    96 STARTS. ATTEMPT NUMBER  1, TIME INCREMENT  1.000E-02

  NUMBER OF EQUATIONS =        24     NUMBER OF FLOATING PT. OPERATIONS =  4.90E+03

     CHECK POINT   START OF SOLVER    

     CHECK POINT  END OF SOLVER       

       ELAPSED USER TIME (SEC)      =   0.0000    
       ELAPSED SYSTEM TIME (SEC)    =   0.0000    
       ELAPSED TOTAL CPU TIME (SEC) =   0.0000    
       ELAPSED WALLCLOCK TIME (SEC) =          0

               CONVERGENCE CHECKS FOR EQUILIBRIUM ITERATION     1


 AVERAGE FORCE                       639.       TIME AVG. FORCE        375.    
 LARGEST RESIDUAL FORCE            -3.009E-36   AT NODE          3   DOF  2
 LARGEST INCREMENT OF DISP.         1.000E-03   AT NODE          2   DOF  1
 LARGEST CORRECTION TO DISP.        3.477E-30   AT NODE          7   DOF  3
          THE FORCE     EQUILIBRIUM RESPONSE WAS LINEAR IN THIS INCREMENT

 ITERATION SUMMARY FOR THE INCREMENT:   1 TOTAL ITERATIONS, OF WHICH
   0 ARE SEVERE DISCONTINUITY ITERATIONS AND  1 ARE EQUILIBRIUM ITERATIONS.

 TIME INCREMENT COMPLETED  1.000E-02,  FRACTION OF STEP COMPLETED  0.960    
 STEP TIME COMPLETED       0.960    ,  TOTAL TIME COMPLETED        0.960    


  INCREMENT    97 STARTS. ATTEMPT NUMBER  1, TIME INCREMENT  1.000E-02

  NUMBER OF EQUATIONS =        24     NUMBER OF FLOATING PT. OPERATIONS =  4.90E+03

     CHECK POINT   START OF SOLVER    

     CHECK POINT  END OF SOLVER       

       ELAPSED USER TIME (SEC)      =   0.0000    
       ELAPSED SYSTEM TIME (SEC)    =   0.0000    
       ELAPSED TOTAL CPU TIME (SEC) =   0.0000    
       ELAPSED WALLCLOCK TIME (SEC) =          0

               CONVERGENCE CHECKS FOR EQUILIBRIUM ITERATION     1


 AVERAGE FORCE                       644.       TIME AVG. FORCE        378.    
 LARGEST RESIDUAL FORCE             6.019E-36   AT NODE          7   DOF  3
 LARGEST INCREMENT OF DISP.         1.000E-03   AT NODE          2   DOF  1
 LARGEST CORRECTION TO DISP.        3.468E-30   AT NODE          7   DOF  2
          THE FORCE     EQUILIBRIUM RESPONSE WAS LINEAR IN THIS INCREMENT

 ITERATION SUMMARY FOR THE INCREMENT:   1 TOTAL ITERATIONS, OF WHICH
   0 ARE SEVERE DISCONTINUITY ITERATIONS AND  1 ARE EQUILIBRIUM ITERATIONS.

 TIME INCREMENT COMPLETED  1.000E-02,  FRACTION OF STEP COMPLETED  0.970    
 STEP TIME COMPLETED       0.970    ,  TOTAL TIME COMPLETED        0.970    


  INCREMENT    98 STARTS. ATTEMPT NUMBER  1, TIME INCREMENT  1.000E-02

  NUMBER OF EQUATIONS =        24     NUMBER OF FLOATING PT. OPERATIONS =  4.90E+03

     CHECK POINT   START OF SOLVER    

     CHECK POINT  END OF SOLVER       

       ELAPSED USER TIME (SEC)      =   0.0000    
       ELAPSED SYSTEM TIME (SEC)    =   0.0000    
       ELAPSED TOTAL CPU TIME (SEC) =   0.0000    
       ELAPSED WALLCLOCK TIME (SEC) =          0

               CONVERGENCE CHECKS FOR EQUILIBRIUM ITERATION     1


 AVERAGE FORCE                       649.       TIME AVG. FORCE        380.    
 LARGEST RESIDUAL FORCE             4.514E-36   AT NODE          3   DOF  2
 LARGEST INCREMENT OF DISP.         1.000E-03   AT NODE          2   DOF  1
 LARGEST CORRECTION TO DISP.        3.460E-30   AT NODE          7   DOF  3
          THE FORCE     EQUILIBRIUM RESPONSE WAS LINEAR IN THIS INCREMENT

 ITERATION SUMMARY FOR THE INCREMENT:   1 TOTAL ITERATIONS, OF WHICH
   0 ARE SEVERE DISCONTINUITY ITERATIONS AND  1 ARE EQUILIBRIUM ITERATIONS.

 TIME INCREMENT COMPLETED  1.000E-02,  FRACTION OF STEP COMPLETED  0.980    
 STEP TIME COMPLETED       0.980    ,  TOTAL TIME COMPLETED        0.980    


  INCREMENT    99 STARTS. ATTEMPT NUMBER  1, TIME INCREMENT  1.000E-02

  NUMBER OF EQUATIONS =        24     NUMBER OF FLOATING PT. OPERATIONS =  4.90E+03

     CHECK POINT   START OF SOLVER    

     CHECK POINT  END OF SOLVER       

       ELAPSED USER TIME (SEC)      =   0.0000    
       ELAPSED SYSTEM TIME (SEC)    =   0.0000    
       ELAPSED TOTAL CPU TIME (SEC) =   0.0000    
       ELAPSED WALLCLOCK TIME (SEC) =          0

               CONVERGENCE CHECKS FOR EQUILIBRIUM ITERATION     1


 AVERAGE FORCE                       654.       TIME AVG. FORCE        383.    
 LARGEST RESIDUAL FORCE             1.505E-36   AT NODE          3   DOF  2
 LARGEST INCREMENT OF DISP.         1.000E-03   AT NODE          2   DOF  1
 LARGEST CORRECTION TO DISP.        3.451E-30   AT NODE          8   DOF  2
          THE FORCE     EQUILIBRIUM RESPONSE WAS LINEAR IN THIS INCREMENT

 ITERATION SUMMARY FOR THE INCREMENT:   1 TOTAL ITERATIONS, OF WHICH
   0 ARE SEVERE DISCONTINUITY ITERATIONS AND  1 ARE EQUILIBRIUM ITERATIONS.

 TIME INCREMENT COMPLETED  1.000E-02,  FRACTION OF STEP COMPLETED  0.990    
 STEP TIME COMPLETED       0.990    ,  TOTAL TIME COMPLETED        0.990    


  INCREMENT   100 STARTS. ATTEMPT NUMBER  1, TIME INCREMENT  1.000E-02

  NUMBER OF EQUATIONS =        24     NUMBER OF FLOATING PT. OPERATIONS =  4.90E+03

     CHECK POINT   START OF SOLVER    

     CHECK POINT  END OF SOLVER       

       ELAPSED USER TIME (SEC)      =   0.0000    
       ELAPSED SYSTEM TIME (SEC)    =   0.0000    
       ELAPSED TOTAL CPU TIME (SEC) =   0.0000    
       ELAPSED WALLCLOCK TIME (SEC) =          0

               CONVERGENCE CHECKS FOR EQUILIBRIUM ITERATION     1


 AVERAGE FORCE                       659.       TIME AVG. FORCE        386.    
 LARGEST RESIDUAL FORCE             1.203E-16   AT NODE          6   DOF  3
 LARGEST INCREMENT OF DISP.         1.000E-03   AT NODE          2   DOF  1
 LARGEST CORRECTION TO DISP.       -3.686E-18   AT NODE          2   DOF  1
          THE FORCE     EQUILIBRIUM RESPONSE WAS LINEAR IN THIS INCREMENT

 ITERATION SUMMARY FOR THE INCREMENT:   1 TOTAL ITERATIONS, OF WHICH
   0 ARE SEVERE DISCONTINUITY ITERATIONS AND  1 ARE EQUILIBRIUM ITERATIONS.

 TIME INCREMENT COMPLETED  1.000E-02,  FRACTION OF STEP COMPLETED   1.00    
 STEP TIME COMPLETED        1.00    ,  TOTAL TIME COMPLETED         1.00    


          THE ANALYSIS HAS BEEN COMPLETED



     ANALYSIS SUMMARY:
     TOTAL OF        100  INCREMENTS
                       0  CUTBACKS IN AUTOMATIC INCREMENTATION
                     100  ITERATIONS INCLUDING CONTACT ITERATIONS IF PRESENT
                     100  PASSES THROUGH THE EQUATION SOLVER OF WHICH 
                     100  INVOLVE MATRIX DECOMPOSITION, INCLUDING
                       0  DECOMPOSITION(S) OF THE MASS MATRIX
                       1  REORDERING OF EQUATIONS TO MINIMIZE WAVEFRONT
                       0  ADDITIONAL RESIDUAL EVALUATIONS FOR LINE SEARCHES
                       0  ADDITIONAL OPERATOR EVALUATIONS FOR LINE SEARCHES
                       1  WARNING MESSAGES DURING USER INPUT PROCESSING
                       0  WARNING MESSAGES DURING ANALYSIS
                       0  ANALYSIS WARNINGS ARE NUMERICAL PROBLEM MESSAGES
                       0  ANALYSIS WARNINGS ARE NEGATIVE EIGENVALUE MESSAGES
                       0  ERROR MESSAGES



     JOB TIME SUMMARY
       USER TIME (SEC)      =  0.90000    
       SYSTEM TIME (SEC)    =  0.40000    
       TOTAL CPU TIME (SEC) =   1.3000    
       WALLCLOCK TIME (SEC) =          2
