 Abaqus/Standard 3DEXPERIENCE R2017x                  DATE 26-Feb-2018 TIME 13:37:53
 SUMMARY OF JOB INFORMATION:
 STEP  INC ATT SEVERE EQUIL TOTAL  TOTAL      STEP       INC OF       DOF    IF
               DISCON ITERS ITERS  TIME/    TIME/LPF    TIME/LPF    MONITOR RIKS
               ITERS               FREQ
   1     1   1     0     1     1  0.0200     0.0200     0.02000   
   1     2   1     0     1     1  0.0400     0.0400     0.02000   
   1     3   1     0     1     1  0.0600     0.0600     0.02000   
   1     4   1     0     1     1  0.0800     0.0800     0.02000   
   1     5   1     0     1     1  0.100      0.100      0.02000   
   1     6   1     0     1     1  0.120      0.120      0.02000   
   1     7   1     0     1     1  0.140      0.140      0.02000   
   1     8   1     0     1     1  0.160      0.160      0.02000   
   1     9   1     0     1     1  0.180      0.180      0.02000   
   1    10   1     0     1     1  0.200      0.200      0.02000   
   1    11   1     0     1     1  0.220      0.220      0.02000   
   1    12   1     0     1     1  0.240      0.240      0.02000   
   1    13   1     0     1     1  0.260      0.260      0.02000   
   1    14   1     0     1     1  0.280      0.280      0.02000   
   1    15   1     0     1     1  0.300      0.300      0.02000   
   1    16   1     0     1     1  0.320      0.320      0.02000   
   1    17   1     0     1     1  0.340      0.340      0.02000   
   1    18   1     0     1     1  0.360      0.360      0.02000   
   1    19   1     0     1     1  0.380      0.380      0.02000   
   1    20   1     0     1     1  0.400      0.400      0.02000   
   1    21   1     0     1     1  0.420      0.420      0.02000   
   1    22   1     0     1     1  0.440      0.440      0.02000   
   1    23   1     0     1     1  0.460      0.460      0.02000   
   1    24   1     0     1     1  0.480      0.480      0.02000   
   1    25   1     0     1     1  0.500      0.500      0.02000   
   1    26   1     0     1     1  0.520      0.520      0.02000   
   1    27   1     0     1     1  0.540      0.540      0.02000   
   1    28   1     0     1     1  0.560      0.560      0.02000   
   1    29   1     0     1     1  0.580      0.580      0.02000   
   1    30   1     0     1     1  0.600      0.600      0.02000   
   1    31   1     0     1     1  0.620      0.620      0.02000   
   1    32   1     0     1     1  0.640      0.640      0.02000   
   1    33   1     0     1     1  0.660      0.660      0.02000   
   1    34   1     0     1     1  0.680      0.680      0.02000   
   1    35   1     0     1     1  0.700      0.700      0.02000   
   1    36   1     0     1     1  0.720      0.720      0.02000   
   1    37   1     0     1     1  0.740      0.740      0.02000   
   1    38   1     0     1     1  0.760      0.760      0.02000   
   1    39   1     0     1     1  0.780      0.780      0.02000   
   1    40   1     0     1     1  0.800      0.800      0.02000   
   1    41   1     0     1     1  0.820      0.820      0.02000   
   1    42   1     0     1     1  0.840      0.840      0.02000   
   1    43   1     0     1     1  0.860      0.860      0.02000   
   1    44   1     0     1     1  0.880      0.880      0.02000   
   1    45   1     0     1     1  0.900      0.900      0.02000   
   1    46   1     0     1     1  0.920      0.920      0.02000   
   1    47   1     0     1     1  0.940      0.940      0.02000   
   1    48   1     0     1     1  0.960      0.960      0.02000   
   1    49   1     0     1     1  0.980      0.980      0.02000   
   1    50   1     0     1     1  1.00       1.00       0.02000   
                          
 THE ANALYSIS HAS COMPLETED SUCCESSFULLY
